PDBT-T1.mol
  xtb     01102218333D
 energy: -477.327151975080 gnorm: 0.000347400906 xtb: 6.4.1 (unknown)
272307  0     0  0            999 V2000
   -0.2626    6.1388    7.3960 C   0  0  0  0  0  0  0  0  0  0  0  0
   -0.6333    5.7295    8.6585 C   0  0  0  0  0  0  0  0  0  0  0  0
   -1.9891    5.3882    8.7123 C   0  0  0  0  0  0  0  0  0  0  0  0
   -2.6626    5.5382    7.5064 C   0  0  0  0  0  0  0  0  0  0  0  0
   -1.6227    6.1751    6.2889 S   0  0  0  0  0  0  0  0  0  0  0  0
   -3.9705    4.9934    7.4999 C   0  0  0  0  0  0  0  0  0  0  0  0
   -4.8719    4.8598    6.4349 C   0  0  0  0  0  0  0  0  0  0  0  0
   -4.6000    5.4418    5.1248 C   0  0  0  0  0  0  0  0  0  0  0  0
   -3.6192    5.1134    4.2396 C   0  0  0  0  0  0  0  0  0  0  0  0
   -3.6599    5.8849    3.0583 C   0  0  0  0  0  0  0  0  0  0  0  0
   -4.6641    6.8001    3.0451 C   0  0  0  0  0  0  0  0  0  0  0  0
   -5.0332    7.7585    1.9657 C   0  0  0  0  0  0  0  0  0  0  0  0
   -6.3366    7.3454    1.2796 C   0  0  0  0  0  0  0  0  0  0  0  0
   -5.6003    6.7195    4.5026 S   0  0  0  0  0  0  0  0  0  0  0  0
   -6.0001    4.0887    6.6626 C   0  0  0  0  0  0  0  0  0  0  0  0
   -7.1426    3.6505    5.4056 S   0  0  0  0  0  0  0  0  0  0  0  0
   -7.9058    2.5281    6.4899 C   0  0  0  0  0  0  0  0  0  0  0  0
   -8.8398    1.5063    6.2919 C   0  0  0  0  0  0  0  0  0  0  0  0
   -9.0279    0.7603    7.4315 C   0  0  0  0  0  0  0  0  0  0  0  0
   -8.0944    1.3783    8.7858 S   0  0  0  0  0  0  0  0  0  0  0  0
   -9.6416   -0.5212    7.5296 C   0  0  0  0  0  0  0  0  0  0  0  0
   -9.8872   -1.2852    8.6491 C   0  0  0  0  0  0  0  0  0  0  0  0
  -10.2083   -2.6142    8.3650 C   0  0  0  0  0  0  0  0  0  0  0  0
  -10.1963   -2.9095    7.0187 C   0  0  0  0  0  0  0  0  0  0  0  0
  -10.1619   -4.1403    6.2983 C   0  0  0  0  0  0  0  0  0  0  0  0
   -9.7395   -5.4147    6.6629 C   0  0  0  0  0  0  0  0  0  0  0  0
   -9.3781   -6.2150    5.5317 C   0  0  0  0  0  0  0  0  0  0  0  0
   -8.7080   -7.5016    5.6470 C   0  0  0  0  0  0  0  0  0  0  0  0
   -8.5597   -7.9884    7.0130 C   0  0  0  0  0  0  0  0  0  0  0  0
   -7.9986   -9.1949    7.3516 C   0  0  0  0  0  0  0  0  0  0  0  0
   -7.3770  -10.2162    6.4695 C   0  0  0  0  0  0  0  0  0  0  0  0
   -5.9380   -9.8254    6.1184 C   0  0  0  0  0  0  0  0  0  0  0  0
   -8.0255   -9.4222    9.0655 S   0  0  0  0  0  0  0  0  0  0  0  0
   -8.8034   -7.8986    9.3328 C   0  0  0  0  0  0  0  0  0  0  0  0
   -9.0927   -7.4507   10.7201 C   0  0  0  0  0  0  0  0  0  0  0  0
   -7.9969   -6.5090   11.2277 C   0  0  0  0  0  0  0  0  0  0  0  0
   -9.0166   -7.2425    8.1461 C   0  0  0  0  0  0  0  0  0  0  0  0
   -9.6679   -5.9356    8.0296 C   0  0  0  0  0  0  0  0  0  0  0  0
  -10.1547   -5.3638    8.9952 O   0  0  0  0  0  0  0  0  0  0  0  0
   -8.2660   -8.1100    4.6770 O   0  0  0  0  0  0  0  0  0  0  0  0
   -9.6364   -5.6063    4.3125 C   0  0  0  0  0  0  0  0  0  0  0  0
   -9.3245   -5.9634    2.9719 C   0  0  0  0  0  0  0  0  0  0  0  0
   -7.9596   -6.9507    2.5423 S   0  0  0  0  0  0  0  0  0  0  0  0
   -9.8759   -5.3716    1.8479 C   0  0  0  0  0  0  0  0  0  0  0  0
   -9.1894   -5.6532    0.6727 C   0  0  0  0  0  0  0  0  0  0  0  0
   -8.0651   -6.4272    0.8914 C   0  0  0  0  0  0  0  0  0  0  0  0
   -6.9771   -6.6248   -0.0089 C   0  0  0  0  0  0  0  0  0  0  0  0
   -5.3770   -6.8468    0.6759 S   0  0  0  0  0  0  0  0  0  0  0  0
   -4.6535   -6.5716   -0.8636 C   0  0  0  0  0  0  0  0  0  0  0  0
   -3.3285   -6.3216   -1.3010 C   0  0  0  0  0  0  0  0  0  0  0  0
   -2.1446   -6.2852   -0.5504 C   0  0  0  0  0  0  0  0  0  0  0  0
   -2.1240   -6.6763    0.8553 C   0  0  0  0  0  0  0  0  0  0  0  0
   -2.7052   -6.0571    1.9187 C   0  0  0  0  0  0  0  0  0  0  0  0
   -2.4852   -6.7324    3.1389 C   0  0  0  0  0  0  0  0  0  0  0  0
   -1.7447   -7.8636    3.0051 C   0  0  0  0  0  0  0  0  0  0  0  0
   -1.2951   -8.8129    4.0619 C   0  0  0  0  0  0  0  0  0  0  0  0
    0.1997   -8.6570    4.3479 C   0  0  0  0  0  0  0  0  0  0  0  0
   -1.2828   -8.1134    1.3522 S   0  0  0  0  0  0  0  0  0  0  0  0
   -1.0175   -5.7903   -1.1852 C   0  0  0  0  0  0  0  0  0  0  0  0
   -1.0195   -5.3912   -2.5438 C   0  0  0  0  0  0  0  0  0  0  0  0
   -2.1712   -5.5565   -3.3327 C   0  0  0  0  0  0  0  0  0  0  0  0
   -2.1473   -5.2424   -4.7487 C   0  0  0  0  0  0  0  0  0  0  0  0
   -0.8892   -5.9008   -5.7538 S   0  0  0  0  0  0  0  0  0  0  0  0
   -2.9946   -4.4627   -5.4790 C   0  0  0  0  0  0  0  0  0  0  0  0
   -2.6177   -4.3580   -6.8339 C   0  0  0  0  0  0  0  0  0  0  0  0
   -1.5001   -5.0686   -7.1445 C   0  0  0  0  0  0  0  0  0  0  0  0
   -0.7993   -5.1813   -8.4545 C   0  0  0  0  0  0  0  0  0  0  0  0
    0.6994   -4.9200   -8.3144 C   0  0  0  0  0  0  0  0  0  0  0  0
   -3.3198   -5.9767   -2.6758 C   0  0  0  0  0  0  0  0  0  0  0  0
   -4.9192   -6.0391   -3.3991 S   0  0  0  0  0  0  0  0  0  0  0  0
   -5.6189   -6.4042   -1.8473 C   0  0  0  0  0  0  0  0  0  0  0  0
   -6.9352   -6.4285   -1.3702 C   0  0  0  0  0  0  0  0  0  0  0  0
    0.4758   -5.3850   -0.3546 S   0  0  0  0  0  0  0  0  0  0  0  0
    1.0244   -4.5183   -1.7613 C   0  0  0  0  0  0  0  0  0  0  0  0
    0.1657   -4.6710   -2.8428 C   0  0  0  0  0  0  0  0  0  0  0  0
    0.6654   -3.6878   -4.1701 S   0  0  0  0  0  0  0  0  0  0  0  0
    1.9681   -3.0149   -3.2159 C   0  0  0  0  0  0  0  0  0  0  0  0
    2.6968   -1.9043   -3.7264 C   0  0  0  0  0  0  0  0  0  0  0  0
    3.3727   -0.9483   -2.9920 C   0  0  0  0  0  0  0  0  0  0  0  0
    3.8899    0.0614   -3.7889 C   0  0  0  0  0  0  0  0  0  0  0  0
    3.6588   -0.1187   -5.1453 C   0  0  0  0  0  0  0  0  0  0  0  0
    4.1455    0.7568   -6.1483 C   0  0  0  0  0  0  0  0  0  0  0  0
    4.2844    0.6358   -7.5266 C   0  0  0  0  0  0  0  0  0  0  0  0
    4.9820    1.7349   -8.1214 C   0  0  0  0  0  0  0  0  0  0  0  0
    5.2118    1.8387   -9.5693 C   0  0  0  0  0  0  0  0  0  0  0  0
    4.8146    0.6436  -10.3169 C   0  0  0  0  0  0  0  0  0  0  0  0
    5.0505    0.4501  -11.6535 C   0  0  0  0  0  0  0  0  0  0  0  0
    5.7078    1.3565  -12.6297 C   0  0  0  0  0  0  0  0  0  0  0  0
    4.6984    2.3543  -13.2046 C   0  0  0  0  0  0  0  0  0  0  0  0
    4.4124   -1.0702  -12.1816 S   0  0  0  0  0  0  0  0  0  0  0  0
    3.8220   -1.4564  -10.6034 C   0  0  0  0  0  0  0  0  0  0  0  0
    3.0894   -2.7213  -10.3389 C   0  0  0  0  0  0  0  0  0  0  0  0
    2.9681   -3.6103  -11.5676 C   0  0  0  0  0  0  0  0  0  0  0  0
    4.1241   -0.4535   -9.7136 C   0  0  0  0  0  0  0  0  0  0  0  0
    3.7748   -0.4806   -8.3004 C   0  0  0  0  0  0  0  0  0  0  0  0
    3.0909   -1.3830   -7.8176 O   0  0  0  0  0  0  0  0  0  0  0  0
    5.6700    2.8303  -10.1120 O   0  0  0  0  0  0  0  0  0  0  0  0
    5.3433    2.7019   -7.2042 C   0  0  0  0  0  0  0  0  0  0  0  0
    6.0852    3.9165   -7.3535 C   0  0  0  0  0  0  0  0  0  0  0  0
    7.1442    4.2097   -8.1716 C   0  0  0  0  0  0  0  0  0  0  0  0
    7.6427    5.5099   -7.9788 C   0  0  0  0  0  0  0  0  0  0  0  0
    6.9732    6.1980   -7.0162 C   0  0  0  0  0  0  0  0  0  0  0  0
    5.7198    5.2677   -6.3126 S   0  0  0  0  0  0  0  0  0  0  0  0
    4.8103    2.2716   -5.6062 S   0  0  0  0  0  0  0  0  0  0  0  0
    2.7311   -1.5598   -5.4221 S   0  0  0  0  0  0  0  0  0  0  0  0
    2.0502   -3.5895   -1.9683 C   0  0  0  0  0  0  0  0  0  0  0  0
  -10.3208   -4.0232    4.5626 S   0  0  0  0  0  0  0  0  0  0  0  0
   -9.8837   -1.4568    6.0861 S   0  0  0  0  0  0  0  0  0  0  0  0
   -7.3698    2.5737    7.7710 C   0  0  0  0  0  0  0  0  0  0  0  0
   -6.2655    3.4544    7.9037 C   0  0  0  0  0  0  0  0  0  0  0  0
   -5.4074    3.6639    8.9940 C   0  0  0  0  0  0  0  0  0  0  0  0
   -5.6475    3.0542   10.2966 C   0  0  0  0  0  0  0  0  0  0  0  0
   -5.9307    4.0538   11.6903 S   0  0  0  0  0  0  0  0  0  0  0  0
   -5.6561    1.7346   10.6313 C   0  0  0  0  0  0  0  0  0  0  0  0
   -5.8918    1.5152   12.0056 C   0  0  0  0  0  0  0  0  0  0  0  0
   -6.0669    2.6615   12.7144 C   0  0  0  0  0  0  0  0  0  0  0  0
   -6.2984    2.8256   14.1771 C   0  0  0  0  0  0  0  0  0  0  0  0
   -5.0474    3.3607   14.8766 C   0  0  0  0  0  0  0  0  0  0  0  0
   -4.2740    4.4292    8.7641 C   0  0  0  0  0  0  0  0  0  0  0  0
   -2.9841    4.6503    9.9351 S   0  0  0  0  0  0  0  0  0  0  0  0
    6.8744   -2.8038  -10.3561 C   0  0  0  0  0  0  0  0  0  0  0  0
    7.3941   -1.5514  -10.2905 C   0  0  0  0  0  0  0  0  0  0  0  0
    7.3630   -1.0637   -8.9700 C   0  0  0  0  0  0  0  0  0  0  0  0
    6.8155   -1.9419   -8.0496 C   0  0  0  0  0  0  0  0  0  0  0  0
    6.3408   -3.4101   -8.8268 S   0  0  0  0  0  0  0  0  0  0  0  0
    6.8522   -1.4747   -6.7058 C   0  0  0  0  0  0  0  0  0  0  0  0
    6.4556   -2.1111   -5.5161 C   0  0  0  0  0  0  0  0  0  0  0  0
    5.7377   -3.3711   -5.5121 C   0  0  0  0  0  0  0  0  0  0  0  0
    4.6965   -3.7400   -6.3172 C   0  0  0  0  0  0  0  0  0  0  0  0
    4.1173   -4.9708   -5.9544 C   0  0  0  0  0  0  0  0  0  0  0  0
    4.7107   -5.5544   -4.8792 C   0  0  0  0  0  0  0  0  0  0  0  0
    4.3805   -6.8506   -4.2245 C   0  0  0  0  0  0  0  0  0  0  0  0
    5.4800   -7.8892   -4.4517 C   0  0  0  0  0  0  0  0  0  0  0  0
    6.0229   -4.5847   -4.2945 S   0  0  0  0  0  0  0  0  0  0  0  0
    6.7222   -1.4266   -4.3322 C   0  0  0  0  0  0  0  0  0  0  0  0
    6.3922   -2.0771   -2.7379 S   0  0  0  0  0  0  0  0  0  0  0  0
    6.8770   -0.5787   -2.0127 C   0  0  0  0  0  0  0  0  0  0  0  0
    6.8392   -0.1107   -0.6943 C   0  0  0  0  0  0  0  0  0  0  0  0
    7.1869    1.2164   -0.6216 C   0  0  0  0  0  0  0  0  0  0  0  0
    7.6311    1.8690   -2.1824 S   0  0  0  0  0  0  0  0  0  0  0  0
    7.0056    2.0906    0.4934 C   0  0  0  0  0  0  0  0  0  0  0  0
    7.0663    1.7955    1.8389 C   0  0  0  0  0  0  0  0  0  0  0  0
    6.5785    2.8287    2.6298 C   0  0  0  0  0  0  0  0  0  0  0  0
    6.1041    3.9155    1.9086 C   0  0  0  0  0  0  0  0  0  0  0  0
    5.2951    4.9421    2.4577 C   0  0  0  0  0  0  0  0  0  0  0  0
    4.4473    5.8577    1.8450 C   0  0  0  0  0  0  0  0  0  0  0  0
    3.5179    6.4609    2.7465 C   0  0  0  0  0  0  0  0  0  0  0  0
    2.4553    7.3459    2.2984 C   0  0  0  0  0  0  0  0  0  0  0  0
    2.4282    7.5862    0.8588 C   0  0  0  0  0  0  0  0  0  0  0  0
    1.4987    8.3677    0.2173 C   0  0  0  0  0  0  0  0  0  0  0  0
    0.3332    9.0913    0.7889 C   0  0  0  0  0  0  0  0  0  0  0  0
   -0.8352    8.1347    1.0467 C   0  0  0  0  0  0  0  0  0  0  0  0
    1.7942    8.3962   -1.4876 S   0  0  0  0  0  0  0  0  0  0  0  0
    3.1807    7.3706   -1.3469 C   0  0  0  0  0  0  0  0  0  0  0  0
    3.9287    6.9465   -2.5593 C   0  0  0  0  0  0  0  0  0  0  0  0
    3.5386    5.5257   -2.9783 C   0  0  0  0  0  0  0  0  0  0  0  0
    3.3902    7.0172   -0.0364 C   0  0  0  0  0  0  0  0  0  0  0  0
    4.4770    6.1635    0.4275 C   0  0  0  0  0  0  0  0  0  0  0  0
    5.3598    5.7486   -0.3218 O   0  0  0  0  0  0  0  0  0  0  0  0
    1.6238    7.8290    3.0627 O   0  0  0  0  0  0  0  0  0  0  0  0
    3.6965    6.0664    4.0653 C   0  0  0  0  0  0  0  0  0  0  0  0
    2.9194    6.2732    5.2337 C   0  0  0  0  0  0  0  0  0  0  0  0
    1.2545    6.7766    5.2034 S   0  0  0  0  0  0  0  0  0  0  0  0
    3.2851    5.8716    6.5101 C   0  0  0  0  0  0  0  0  0  0  0  0
    2.2438    5.8963    7.4278 C   0  0  0  0  0  0  0  0  0  0  0  0
    1.0461    6.2877    6.8563 C   0  0  0  0  0  0  0  0  0  0  0  0
    5.0385    4.9501    4.1874 S   0  0  0  0  0  0  0  0  0  0  0  0
    6.3797    3.6851    0.2049 S   0  0  0  0  0  0  0  0  0  0  0  0
    7.2921    0.3576   -2.9493 C   0  0  0  0  0  0  0  0  0  0  0  0
    7.2523   -0.1114   -4.2905 C   0  0  0  0  0  0  0  0  0  0  0  0
    7.6552    0.5205   -5.4798 C   0  0  0  0  0  0  0  0  0  0  0  0
    8.3137    1.8178   -5.4905 C   0  0  0  0  0  0  0  0  0  0  0  0
    9.8262    1.9975   -6.3385 S   0  0  0  0  0  0  0  0  0  0  0  0
    7.9522    2.9965   -4.9077 C   0  0  0  0  0  0  0  0  0  0  0  0
    8.8720    4.0397   -5.1376 C   0  0  0  0  0  0  0  0  0  0  0  0
    9.9406    3.6665   -5.8903 C   0  0  0  0  0  0  0  0  0  0  0  0
   11.1072    4.4903   -6.3166 C   0  0  0  0  0  0  0  0  0  0  0  0
   11.4246    4.3153   -7.7999 C   0  0  0  0  0  0  0  0  0  0  0  0
    7.4638   -0.1973   -6.6562 C   0  0  0  0  0  0  0  0  0  0  0  0
    7.9343    0.3999   -8.2394 S   0  0  0  0  0  0  0  0  0  0  0  0
    0.0456    5.6424    9.4857 H   0  0  0  0  0  0  0  0  0  0  0  0
   -2.9057    4.3287    4.4169 H   0  0  0  0  0  0  0  0  0  0  0  0
   -2.9604    5.7652    2.2504 H   0  0  0  0  0  0  0  0  0  0  0  0
   -4.2235    7.7870    1.2334 H   0  0  0  0  0  0  0  0  0  0  0  0
   -5.1518    8.7603    2.3864 H   0  0  0  0  0  0  0  0  0  0  0  0
   -6.5884    8.0495    0.4905 H   0  0  0  0  0  0  0  0  0  0  0  0
   -7.1504    7.3237    2.0008 H   0  0  0  0  0  0  0  0  0  0  0  0
   -6.2359    6.3540    0.8440 H   0  0  0  0  0  0  0  0  0  0  0  0
   -9.3177    1.2875    5.3546 H   0  0  0  0  0  0  0  0  0  0  0  0
   -9.7994   -0.8912    9.6464 H   0  0  0  0  0  0  0  0  0  0  0  0
  -10.4097   -3.3543    9.1159 H   0  0  0  0  0  0  0  0  0  0  0  0
   -7.3844  -11.1856    6.9717 H   0  0  0  0  0  0  0  0  0  0  0  0
   -7.9529  -10.2827    5.5444 H   0  0  0  0  0  0  0  0  0  0  0  0
   -5.3448   -9.6959    7.0215 H   0  0  0  0  0  0  0  0  0  0  0  0
   -5.4836  -10.6009    5.5081 H   0  0  0  0  0  0  0  0  0  0  0  0
   -5.9359   -8.8972    5.5534 H   0  0  0  0  0  0  0  0  0  0  0  0
  -10.0449   -6.9172   10.7259 H   0  0  0  0  0  0  0  0  0  0  0  0
   -9.1618   -8.3207   11.3760 H   0  0  0  0  0  0  0  0  0  0  0  0
   -8.2075   -6.2147   12.2522 H   0  0  0  0  0  0  0  0  0  0  0  0
   -7.9615   -5.6154   10.6102 H   0  0  0  0  0  0  0  0  0  0  0  0
   -7.0258   -6.9990   11.1963 H   0  0  0  0  0  0  0  0  0  0  0  0
  -10.7409   -4.7331    1.9003 H   0  0  0  0  0  0  0  0  0  0  0  0
   -9.4604   -5.2578   -0.2894 H   0  0  0  0  0  0  0  0  0  0  0  0
   -3.2565   -5.1377    1.8344 H   0  0  0  0  0  0  0  0  0  0  0  0
   -2.8739   -6.3890    4.0810 H   0  0  0  0  0  0  0  0  0  0  0  0
   -1.8684   -8.6214    4.9715 H   0  0  0  0  0  0  0  0  0  0  0  0
   -1.4934   -9.8389    3.7423 H   0  0  0  0  0  0  0  0  0  0  0  0
    0.7764   -8.8503    3.4463 H   0  0  0  0  0  0  0  0  0  0  0  0
    0.4164   -7.6459    4.6851 H   0  0  0  0  0  0  0  0  0  0  0  0
    0.5124   -9.3567    5.1190 H   0  0  0  0  0  0  0  0  0  0  0  0
   -3.8368   -3.9485   -5.0521 H   0  0  0  0  0  0  0  0  0  0  0  0
   -3.1570   -3.7652   -7.5514 H   0  0  0  0  0  0  0  0  0  0  0  0
   -0.9502   -6.1848   -8.8658 H   0  0  0  0  0  0  0  0  0  0  0  0
   -1.2439   -4.4649   -9.1489 H   0  0  0  0  0  0  0  0  0  0  0  0
    1.1416   -5.6585   -7.6494 H   0  0  0  0  0  0  0  0  0  0  0  0
    0.8832   -3.9313   -7.8999 H   0  0  0  0  0  0  0  0  0  0  0  0
    1.1871   -4.9915   -9.2829 H   0  0  0  0  0  0  0  0  0  0  0  0
   -7.8050   -6.2822   -1.9828 H   0  0  0  0  0  0  0  0  0  0  0  0
    3.4651   -0.9743   -1.9213 H   0  0  0  0  0  0  0  0  0  0  0  0
    4.4392    0.9040   -3.4049 H   0  0  0  0  0  0  0  0  0  0  0  0
    6.1448    0.7677  -13.4393 H   0  0  0  0  0  0  0  0  0  0  0  0
    6.4950    1.9139  -12.1185 H   0  0  0  0  0  0  0  0  0  0  0  0
    4.3132    2.9844  -12.4076 H   0  0  0  0  0  0  0  0  0  0  0  0
    5.1823    2.9865  -13.9440 H   0  0  0  0  0  0  0  0  0  0  0  0
    3.8698    1.8313  -13.6777 H   0  0  0  0  0  0  0  0  0  0  0  0
    3.5995   -3.2595   -9.5337 H   0  0  0  0  0  0  0  0  0  0  0  0
    2.0981   -2.4678   -9.9501 H   0  0  0  0  0  0  0  0  0  0  0  0
    2.4381   -4.5264  -11.3204 H   0  0  0  0  0  0  0  0  0  0  0  0
    3.9531   -3.8765  -11.9454 H   0  0  0  0  0  0  0  0  0  0  0  0
    2.4234   -3.1003  -12.3596 H   0  0  0  0  0  0  0  0  0  0  0  0
    7.5527    3.5097   -8.8752 H   0  0  0  0  0  0  0  0  0  0  0  0
    8.4636    5.9222   -8.5375 H   0  0  0  0  0  0  0  0  0  0  0  0
    7.1353    7.2030   -6.6799 H   0  0  0  0  0  0  0  0  0  0  0  0
    2.7959   -3.3327   -1.2396 H   0  0  0  0  0  0  0  0  0  0  0  0
   -5.4709    0.9464    9.9238 H   0  0  0  0  0  0  0  0  0  0  0  0
   -5.9314    0.5357   12.4480 H   0  0  0  0  0  0  0  0  0  0  0  0
   -7.1263    3.5192   14.3439 H   0  0  0  0  0  0  0  0  0  0  0  0
   -6.5724    1.8568   14.6001 H   0  0  0  0  0  0  0  0  0  0  0  0
   -5.2283    3.4708   15.9429 H   0  0  0  0  0  0  0  0  0  0  0  0
   -4.2130    2.6781   14.7325 H   0  0  0  0  0  0  0  0  0  0  0  0
   -4.7740    4.3304   14.4668 H   0  0  0  0  0  0  0  0  0  0  0  0
    6.7722   -3.4276  -11.2217 H   0  0  0  0  0  0  0  0  0  0  0  0
    7.7823   -1.0033  -11.1287 H   0  0  0  0  0  0  0  0  0  0  0  0
    4.3007   -3.1207   -7.0991 H   0  0  0  0  0  0  0  0  0  0  0  0
    3.2724   -5.3942   -6.4665 H   0  0  0  0  0  0  0  0  0  0  0  0
    4.2514   -6.6948   -3.1500 H   0  0  0  0  0  0  0  0  0  0  0  0
    3.4348   -7.2150   -4.6316 H   0  0  0  0  0  0  0  0  0  0  0  0
    5.6198   -8.0644   -5.5160 H   0  0  0  0  0  0  0  0  0  0  0  0
    5.2160   -8.8297   -3.9748 H   0  0  0  0  0  0  0  0  0  0  0  0
    6.4203   -7.5372   -4.0334 H   0  0  0  0  0  0  0  0  0  0  0  0
    6.5148   -0.6918    0.1486 H   0  0  0  0  0  0  0  0  0  0  0  0
    7.4463    0.8680    2.2287 H   0  0  0  0  0  0  0  0  0  0  0  0
    6.5150    2.7818    3.7033 H   0  0  0  0  0  0  0  0  0  0  0  0
    0.6275    9.5389    1.7402 H   0  0  0  0  0  0  0  0  0  0  0  0
    0.0205    9.8787    0.1003 H   0  0  0  0  0  0  0  0  0  0  0  0
   -1.6862    8.6897    1.4322 H   0  0  0  0  0  0  0  0  0  0  0  0
   -1.1278    7.6304    0.1277 H   0  0  0  0  0  0  0  0  0  0  0  0
   -0.5472    7.3930    1.7868 H   0  0  0  0  0  0  0  0  0  0  0  0
    3.7214    7.6398   -3.3763 H   0  0  0  0  0  0  0  0  0  0  0  0
    4.9974    6.9595   -2.3370 H   0  0  0  0  0  0  0  0  0  0  0  0
    4.0605    5.2558   -3.8922 H   0  0  0  0  0  0  0  0  0  0  0  0
    3.8172    4.8206   -2.1999 H   0  0  0  0  0  0  0  0  0  0  0  0
    2.4669    5.4573   -3.1529 H   0  0  0  0  0  0  0  0  0  0  0  0
    4.2828    5.5414    6.7433 H   0  0  0  0  0  0  0  0  0  0  0  0
    2.3443    5.5931    8.4542 H   0  0  0  0  0  0  0  0  0  0  0  0
    7.0354    3.1403   -4.3668 H   0  0  0  0  0  0  0  0  0  0  0  0
    8.7370    5.0346   -4.7524 H   0  0  0  0  0  0  0  0  0  0  0  0
   10.8849    5.5378   -6.0999 H   0  0  0  0  0  0  0  0  0  0  0  0
   11.9862    4.2069   -5.7288 H   0  0  0  0  0  0  0  0  0  0  0  0
   11.6908    3.2814   -8.0081 H   0  0  0  0  0  0  0  0  0  0  0  0
   10.5597    4.5736   -8.4058 H   0  0  0  0  0  0  0  0  0  0  0  0
   12.2568    4.9534   -8.0870 H   0  0  0  0  0  0  0  0  0  0  0  0
  1  2  2  0  0  0  0
  2  3  1  0  0  0  0
  3  4  2  0  0  0  0
  4  5  1  0  0  0  0
  1  5  1  0  0  0  0
  4  6  1  0  0  0  0
  6  7  2  0  0  0  0
  7  8  1  0  0  0  0
  8  9  2  0  0  0  0
  9 10  1  0  0  0  0
 10 11  2  0  0  0  0
 11 12  1  0  0  0  0
 12 13  1  0  0  0  0
 11 14  1  0  0  0  0
  8 14  1  0  0  0  0
  7 15  1  0  0  0  0
 15 16  1  0  0  0  0
 16 17  1  0  0  0  0
 17 18  1  0  0  0  0
 18 19  2  0  0  0  0
 19 20  1  0  0  0  0
 19 21  1  0  0  0  0
 21 22  2  0  0  0  0
 22 23  1  0  0  0  0
 23 24  2  0  0  0  0
 24 25  1  0  0  0  0
 25 26  2  0  0  0  0
 26 27  1  0  0  0  0
 27 28  1  0  0  0  0
 28 29  1  0  0  0  0
 29 30  2  0  0  0  0
 30 31  1  0  0  0  0
 31 32  1  0  0  0  0
 30 33  1  0  0  0  0
 33 34  1  0  0  0  0
 34 35  1  0  0  0  0
 35 36  1  0  0  0  0
 34 37  2  0  0  0  0
 29 37  1  0  0  0  0
 37 38  1  0  0  0  0
 26 38  1  0  0  0  0
 38 39  2  0  0  0  0
 28 40  2  0  0  0  0
 27 41  2  0  0  0  0
 41 42  1  0  0  0  0
 42 43  1  0  0  0  0
 42 44  2  0  0  0  0
 44 45  1  0  0  0  0
 45 46  2  0  0  0  0
 43 46  1  0  0  0  0
 46 47  1  0  0  0  0
 47 48  1  0  0  0  0
 48 49  1  0  0  0  0
 49 50  1  0  0  0  0
 50 51  2  0  0  0  0
 51 52  1  0  0  0  0
 52 53  2  0  0  0  0
 53 54  1  0  0  0  0
 54 55  2  0  0  0  0
 55 56  1  0  0  0  0
 56 57  1  0  0  0  0
 55 58  1  0  0  0  0
 52 58  1  0  0  0  0
 51 59  1  0  0  0  0
 59 60  2  0  0  0  0
 60 61  1  0  0  0  0
 61 62  1  0  0  0  0
 62 63  1  0  0  0  0
 62 64  2  0  0  0  0
 64 65  1  0  0  0  0
 65 66  2  0  0  0  0
 63 66  1  0  0  0  0
 66 67  1  0  0  0  0
 67 68  1  0  0  0  0
 61 69  2  0  0  0  0
 50 69  1  0  0  0  0
 69 70  1  0  0  0  0
 70 71  1  0  0  0  0
 49 71  2  0  0  0  0
 71 72  1  0  0  0  0
 47 72  2  0  0  0  0
 59 73  1  0  0  0  0
 73 74  1  0  0  0  0
 74 75  2  0  0  0  0
 60 75  1  0  0  0  0
 75 76  1  0  0  0  0
 76 77  1  0  0  0  0
 77 78  1  0  0  0  0
 78 79  2  0  0  0  0
 79 80  1  0  0  0  0
 80 81  2  0  0  0  0
 81 82  1  0  0  0  0
 82 83  2  0  0  0  0
 83 84  1  0  0  0  0
 84 85  1  0  0  0  0
 85 86  1  0  0  0  0
 86 87  2  0  0  0  0
 87 88  1  0  0  0  0
 88 89  1  0  0  0  0
 87 90  1  0  0  0  0
 90 91  1  0  0  0  0
 91 92  1  0  0  0  0
 92 93  1  0  0  0  0
 91 94  2  0  0  0  0
 86 94  1  0  0  0  0
 94 95  1  0  0  0  0
 83 95  1  0  0  0  0
 95 96  2  0  0  0  0
 85 97  2  0  0  0  0
 84 98  2  0  0  0  0
 98 99  1  0  0  0  0
 99100  2  0  0  0  0
100101  1  0  0  0  0
101102  2  0  0  0  0
102103  1  0  0  0  0
 99103  1  0  0  0  0
 98104  1  0  0  0  0
 82104  1  0  0  0  0
 81105  1  0  0  0  0
 78105  1  0  0  0  0
 77106  2  0  0  0  0
 74106  1  0  0  0  0
 41107  1  0  0  0  0
 25107  1  0  0  0  0
 24108  1  0  0  0  0
 21108  1  0  0  0  0
 17109  2  0  0  0  0
 20109  1  0  0  0  0
109110  1  0  0  0  0
 15110  2  0  0  0  0
110111  1  0  0  0  0
111112  1  0  0  0  0
112113  1  0  0  0  0
112114  2  0  0  0  0
114115  1  0  0  0  0
115116  2  0  0  0  0
113116  1  0  0  0  0
116117  1  0  0  0  0
117118  1  0  0  0  0
  6119  1  0  0  0  0
111119  2  0  0  0  0
119120  1  0  0  0  0
  3120  1  0  0  0  0
121122  2  0  0  0  0
122123  1  0  0  0  0
123124  2  0  0  0  0
124125  1  0  0  0  0
121125  1  0  0  0  0
124126  1  0  0  0  0
126127  2  0  0  0  0
127128  1  0  0  0  0
128129  2  0  0  0  0
129130  1  0  0  0  0
130131  2  0  0  0  0
131132  1  0  0  0  0
132133  1  0  0  0  0
131134  1  0  0  0  0
128134  1  0  0  0  0
127135  1  0  0  0  0
135136  1  0  0  0  0
136137  1  0  0  0  0
137138  1  0  0  0  0
138139  2  0  0  0  0
139140  1  0  0  0  0
139141  1  0  0  0  0
141142  2  0  0  0  0
142143  1  0  0  0  0
143144  2  0  0  0  0
144145  1  0  0  0  0
145146  2  0  0  0  0
146147  1  0  0  0  0
147148  1  0  0  0  0
148149  1  0  0  0  0
149150  2  0  0  0  0
150151  1  0  0  0  0
151152  1  0  0  0  0
150153  1  0  0  0  0
153154  1  0  0  0  0
154155  1  0  0  0  0
155156  1  0  0  0  0
154157  2  0  0  0  0
149157  1  0  0  0  0
157158  1  0  0  0  0
146158  1  0  0  0  0
158159  2  0  0  0  0
148160  2  0  0  0  0
147161  2  0  0  0  0
161162  1  0  0  0  0
162163  1  0  0  0  0
162164  2  0  0  0  0
164165  1  0  0  0  0
165166  2  0  0  0  0
163166  1  0  0  0  0
161167  1  0  0  0  0
145167  1  0  0  0  0
144168  1  0  0  0  0
141168  1  0  0  0  0
137169  2  0  0  0  0
140169  1  0  0  0  0
169170  1  0  0  0  0
135170  2  0  0  0  0
170171  1  0  0  0  0
171172  1  0  0  0  0
172173  1  0  0  0  0
172174  2  0  0  0  0
174175  1  0  0  0  0
175176  2  0  0  0  0
173176  1  0  0  0  0
176177  1  0  0  0  0
177178  1  0  0  0  0
126179  1  0  0  0  0
171179  2  0  0  0  0
179180  1  0  0  0  0
123180  1  0  0  0  0
  1166  1  0  0  0  0
  2181  1  0  0  0  0
  9182  1  0  0  0  0
 10183  1  0  0  0  0
 12184  1  0  0  0  0
 12185  1  0  0  0  0
 13186  1  0  0  0  0
 13187  1  0  0  0  0
 13188  1  0  0  0  0
 18189  1  0  0  0  0
 22190  1  0  0  0  0
 23191  1  0  0  0  0
 31192  1  0  0  0  0
 31193  1  0  0  0  0
 32194  1  0  0  0  0
 32195  1  0  0  0  0
 32196  1  0  0  0  0
 35197  1  0  0  0  0
 35198  1  0  0  0  0
 36199  1  0  0  0  0
 36200  1  0  0  0  0
 36201  1  0  0  0  0
 44202  1  0  0  0  0
 45203  1  0  0  0  0
 53204  1  0  0  0  0
 54205  1  0  0  0  0
 56206  1  0  0  0  0
 56207  1  0  0  0  0
 57208  1  0  0  0  0
 57209  1  0  0  0  0
 57210  1  0  0  0  0
 64211  1  0  0  0  0
 65212  1  0  0  0  0
 67213  1  0  0  0  0
 67214  1  0  0  0  0
 68215  1  0  0  0  0
 68216  1  0  0  0  0
 68217  1  0  0  0  0
 72218  1  0  0  0  0
 79219  1  0  0  0  0
 80220  1  0  0  0  0
 88221  1  0  0  0  0
 88222  1  0  0  0  0
 89223  1  0  0  0  0
 89224  1  0  0  0  0
 89225  1  0  0  0  0
 92226  1  0  0  0  0
 92227  1  0  0  0  0
 93228  1  0  0  0  0
 93229  1  0  0  0  0
 93230  1  0  0  0  0
100231  1  0  0  0  0
101232  1  0  0  0  0
102233  1  0  0  0  0
106234  1  0  0  0  0
114235  1  0  0  0  0
115236  1  0  0  0  0
117237  1  0  0  0  0
117238  1  0  0  0  0
118239  1  0  0  0  0
118240  1  0  0  0  0
118241  1  0  0  0  0
121242  1  0  0  0  0
122243  1  0  0  0  0
129244  1  0  0  0  0
130245  1  0  0  0  0
132246  1  0  0  0  0
132247  1  0  0  0  0
133248  1  0  0  0  0
133249  1  0  0  0  0
133250  1  0  0  0  0
138251  1  0  0  0  0
142252  1  0  0  0  0
143253  1  0  0  0  0
151254  1  0  0  0  0
151255  1  0  0  0  0
152256  1  0  0  0  0
152257  1  0  0  0  0
152258  1  0  0  0  0
155259  1  0  0  0  0
155260  1  0  0  0  0
156261  1  0  0  0  0
156262  1  0  0  0  0
156263  1  0  0  0  0
164264  1  0  0  0  0
165265  1  0  0  0  0
174266  1  0  0  0  0
175267  1  0  0  0  0
177268  1  0  0  0  0
177269  1  0  0  0  0
178270  1  0  0  0  0
178271  1  0  0  0  0
178272  1  0  0  0  0
M  END
