PDBT-2F.sdf
  ChemDraw11082115162D

192227  0  0  0  0  0  0  0  0999 V2000
  -11.7120    2.4516    0.0000 C   0  0  0  0  0  0  0  0  0  0  0  0
  -12.1962    1.7850    0.0000 C   0  0  0  0  0  0  0  0  0  0  0  0
  -11.7118    1.1185    0.0000 C   0  0  0  0  0  0  0  0  0  0  0  0
  -10.9292    1.3741    0.0000 C   0  0  0  0  0  0  0  0  0  0  0  0
  -10.9291    2.1990    0.0000 S   0  0  0  0  0  0  0  0  0  0  0  0
  -10.2623    0.8903    0.0000 C   0  0  0  0  0  0  0  0  0  0  0  0
  -10.2610    0.0662    0.0000 S   0  0  0  0  0  0  0  0  0  0  0  0
   -9.4774   -0.1879    0.0000 C   0  0  0  0  0  0  0  0  0  0  0  0
   -8.9941    0.4784    0.0000 C   0  0  0  0  0  0  0  0  0  0  0  0
   -9.4784    1.1450    0.0000 C   0  0  0  0  0  0  0  0  0  0  0  0
   -8.1748    0.5654    0.0000 C   0  0  0  0  0  0  0  0  0  0  0  0
   -7.8398    1.3188    0.0000 C   0  0  0  0  0  0  0  0  0  0  0  0
   -8.3246    1.9848    0.0000 C   0  0  0  0  0  0  0  0  0  0  0  0
   -9.1439    1.8978    0.0000 C   0  0  0  0  0  0  0  0  0  0  0  0
   -7.0570    1.5733    0.0000 C   0  0  0  0  0  0  0  0  0  0  0  0
   -7.0569    2.3982    0.0000 S   0  0  0  0  0  0  0  0  0  0  0  0
   -7.8408    2.6517    0.0000 C   0  0  0  0  0  0  0  0  0  0  0  0
   -9.2223   -0.9713    0.0000 C   0  0  0  0  0  0  0  0  0  0  0  0
   -9.7060   -1.6383    0.0000 C   0  0  0  0  0  0  0  0  0  0  0  0
   -9.2222   -2.3043    0.0000 C   0  0  0  0  0  0  0  0  0  0  0  0
   -8.4382   -1.2257    0.0000 S   0  0  0  0  0  0  0  0  0  0  0  0
   -7.6900   -0.1008    0.0000 O   0  0  0  0  0  0  0  0  0  0  0  0
   -9.6288    2.5640    0.0000 O   0  0  0  0  0  0  0  0  0  0  0  0
   -6.3905    1.0890    0.0000 C   0  0  0  0  0  0  0  0  0  0  0  0
   -6.4766    0.2696    0.0000 C   0  0  0  0  0  0  0  0  0  0  0  0
   -8.0963    3.4350    0.0000 C   0  0  0  0  0  0  0  0  0  0  0  0
   -8.9023    3.6054    0.0000 C   0  0  0  0  0  0  0  0  0  0  0  0
  -11.9674    3.2349    0.0000 C   0  0  0  0  0  0  0  0  0  0  0  0
  -11.4839    3.9020    0.0000 C   0  0  0  0  0  0  0  0  0  0  0  0
  -11.9689    4.5677    0.0000 C   0  0  0  0  0  0  0  0  0  0  0  0
  -12.7527    4.3128    0.0000 C   0  0  0  0  0  0  0  0  0  0  0  0
  -12.7511    3.4886    0.0000 S   0  0  0  0  0  0  0  0  0  0  0  0
  -11.9701    5.3925    0.0000 S   0  0  0  0  0  0  0  0  0  0  0  0
  -12.7542    5.6456    0.0000 C   0  0  0  0  0  0  0  0  0  0  0  0
  -13.2377    4.9785    0.0000 C   0  0  0  0  0  0  0  0  0  0  0  0
  -13.0900    6.3978    0.0000 C   0  0  0  0  0  0  0  0  0  0  0  0
  -13.9094    6.4829    0.0000 C   0  0  0  0  0  0  0  0  0  0  0  0
  -14.3929    5.8158    0.0000 C   0  0  0  0  0  0  0  0  0  0  0  0
  -14.0571    5.0636    0.0000 C   0  0  0  0  0  0  0  0  0  0  0  0
  -14.3940    7.1492    0.0000 C   0  0  0  0  0  0  0  0  0  0  0  0
  -15.1781    6.8937    0.0000 C   0  0  0  0  0  0  0  0  0  0  0  0
  -15.1765    6.0695    0.0000 S   0  0  0  0  0  0  0  0  0  0  0  0
  -14.3956    7.9734    0.0000 S   0  0  0  0  0  0  0  0  0  0  0  0
  -15.1792    8.2271    0.0000 C   0  0  0  0  0  0  0  0  0  0  0  0
  -15.6627    7.5600    0.0000 C   0  0  0  0  0  0  0  0  0  0  0  0
  -12.6065    7.0649    0.0000 C   0  0  0  0  0  0  0  0  0  0  0  0
  -14.5406    4.3965    0.0000 C   0  0  0  0  0  0  0  0  0  0  0  0
  -11.7828    7.0660    0.0000 C   0  0  0  0  0  0  0  0  0  0  0  0
  -11.5286    7.8502    0.0000 C   0  0  0  0  0  0  0  0  0  0  0  0
  -12.1957    8.3337    0.0000 C   0  0  0  0  0  0  0  0  0  0  0  0
  -12.8619    7.8481    0.0000 S   0  0  0  0  0  0  0  0  0  0  0  0
  -15.3645    4.3955    0.0000 C   0  0  0  0  0  0  0  0  0  0  0  0
  -14.9510    3.1280    0.0000 C   0  0  0  0  0  0  0  0  0  0  0  0
  -14.2851    3.6132    0.0000 S   0  0  0  0  0  0  0  0  0  0  0  0
  -14.9510    2.3041    0.0000 C   0  0  0  0  0  0  0  0  0  0  0  0
  -14.2375    1.8921    0.0000 C   0  0  0  0  0  0  0  0  0  0  0  0
  -12.1957    9.1576    0.0000 C   0  0  0  0  0  0  0  0  0  0  0  0
  -12.9092    9.5696    0.0000 C   0  0  0  0  0  0  0  0  0  0  0  0
   -8.4384   -2.0496    0.0000 C   0  0  0  0  0  0  0  0  0  0  0  0
  -15.6183    3.6116    0.0000 C   0  0  0  0  0  0  0  0  0  0  0  0
  -16.4016    3.3562    0.0000 F   0  0  0  0  0  0  0  0  0  0  0  0
  -10.7452    8.1055    0.0000 F   0  0  0  0  0  0  0  0  0  0  0  0
  -11.2979    6.3999    0.0000 F   0  0  0  0  0  0  0  0  0  0  0  0
  -15.8495    5.0615    0.0000 F   0  0  0  0  0  0  0  0  0  0  0  0
   -1.5750   -5.1756    0.0000 C   0  0  0  0  0  0  0  0  0  0  0  0
   -1.5760   -5.9995    0.0000 C   0  0  0  0  0  0  0  0  0  0  0  0
   -0.7923   -6.2547    0.0000 C   0  0  0  0  0  0  0  0  0  0  0  0
   -0.3088   -5.5883    0.0000 C   0  0  0  0  0  0  0  0  0  0  0  0
   -0.7931   -4.9205    0.0000 S   0  0  0  0  0  0  0  0  0  0  0  0
    0.5151   -5.5883    0.0000 C   0  0  0  0  0  0  0  0  0  0  0  0
    1.0000   -6.2547    0.0000 S   0  0  0  0  0  0  0  0  0  0  0  0
    1.7835   -6.0003    0.0000 C   0  0  0  0  0  0  0  0  0  0  0  0
    1.7835   -5.1771    0.0000 C   0  0  0  0  0  0  0  0  0  0  0  0
    1.0000   -4.9219    0.0000 C   0  0  0  0  0  0  0  0  0  0  0  0
    2.3956   -4.6256    0.0000 C   0  0  0  0  0  0  0  0  0  0  0  0
    2.2243   -3.8191    0.0000 C   0  0  0  0  0  0  0  0  0  0  0  0
    1.4409   -3.5647    0.0000 C   0  0  0  0  0  0  0  0  0  0  0  0
    0.8288   -4.1161    0.0000 C   0  0  0  0  0  0  0  0  0  0  0  0
    2.7086   -3.1534    0.0000 C   0  0  0  0  0  0  0  0  0  0  0  0
    2.2243   -2.4856    0.0000 S   0  0  0  0  0  0  0  0  0  0  0  0
    1.4409   -2.7407    0.0000 C   0  0  0  0  0  0  0  0  0  0  0  0
    2.4500   -6.4846    0.0000 C   0  0  0  0  0  0  0  0  0  0  0  0
    2.4501   -7.3085    0.0000 C   0  0  0  0  0  0  0  0  0  0  0  0
    3.2327   -7.5636    0.0000 C   0  0  0  0  0  0  0  0  0  0  0  0
    3.2342   -6.2302    0.0000 S   0  0  0  0  0  0  0  0  0  0  0  0
    3.1792   -4.8802    0.0000 O   0  0  0  0  0  0  0  0  0  0  0  0
    0.0451   -3.8616    0.0000 O   0  0  0  0  0  0  0  0  0  0  0  0
    3.5325   -3.1534    0.0000 C   0  0  0  0  0  0  0  0  0  0  0  0
    3.9444   -3.8670    0.0000 C   0  0  0  0  0  0  0  0  0  0  0  0
    0.7742   -2.2567    0.0000 C   0  0  0  0  0  0  0  0  0  0  0  0
    0.0216   -2.5920    0.0000 C   0  0  0  0  0  0  0  0  0  0  0  0
   -2.2416   -4.6913    0.0000 C   0  0  0  0  0  0  0  0  0  0  0  0
   -2.2416   -3.8674    0.0000 C   0  0  0  0  0  0  0  0  0  0  0  0
   -3.0250   -3.6130    0.0000 C   0  0  0  0  0  0  0  0  0  0  0  0
   -3.5099   -4.2793    0.0000 C   0  0  0  0  0  0  0  0  0  0  0  0
   -3.0250   -4.9457    0.0000 S   0  0  0  0  0  0  0  0  0  0  0  0
   -3.5099   -2.9459    0.0000 S   0  0  0  0  0  0  0  0  0  0  0  0
   -4.2934   -3.2010    0.0000 C   0  0  0  0  0  0  0  0  0  0  0  0
   -4.2934   -4.0249    0.0000 C   0  0  0  0  0  0  0  0  0  0  0  0
   -5.0067   -2.7891    0.0000 C   0  0  0  0  0  0  0  0  0  0  0  0
   -5.7200   -3.2010    0.0000 C   0  0  0  0  0  0  0  0  0  0  0  0
   -5.7200   -4.0249    0.0000 C   0  0  0  0  0  0  0  0  0  0  0  0
   -5.0067   -4.4369    0.0000 C   0  0  0  0  0  0  0  0  0  0  0  0
   -6.5035   -2.9459    0.0000 C   0  0  0  0  0  0  0  0  0  0  0  0
   -6.9884   -3.6130    0.0000 C   0  0  0  0  0  0  0  0  0  0  0  0
   -6.5035   -4.2793    0.0000 S   0  0  0  0  0  0  0  0  0  0  0  0
   -6.9884   -2.2795    0.0000 S   0  0  0  0  0  0  0  0  0  0  0  0
   -7.7719   -2.5339    0.0000 C   0  0  0  0  0  0  0  0  0  0  0  0
   -7.7719   -3.3578    0.0000 C   0  0  0  0  0  0  0  0  0  0  0  0
   -5.0067   -1.9652    0.0000 C   0  0  0  0  0  0  0  0  0  0  0  0
   -5.0067   -5.2608    0.0000 C   0  0  0  0  0  0  0  0  0  0  0  0
   -4.3404   -1.4809    0.0000 C   0  0  0  0  0  0  0  0  0  0  0  0
   -4.5948   -0.6968    0.0000 C   0  0  0  0  0  0  0  0  0  0  0  0
   -5.4187   -0.6968    0.0000 C   0  0  0  0  0  0  0  0  0  0  0  0
   -5.6731   -1.4809    0.0000 S   0  0  0  0  0  0  0  0  0  0  0  0
   -5.6732   -5.7451    0.0000 C   0  0  0  0  0  0  0  0  0  0  0  0
   -4.5947   -6.5288    0.0000 C   0  0  0  0  0  0  0  0  0  0  0  0
   -4.3402   -5.7451    0.0000 S   0  0  0  0  0  0  0  0  0  0  0  0
   -4.1103   -7.1953    0.0000 C   0  0  0  0  0  0  0  0  0  0  0  0
   -3.2909   -7.1091    0.0000 C   0  0  0  0  0  0  0  0  0  0  0  0
   -5.9031   -0.0303    0.0000 C   0  0  0  0  0  0  0  0  0  0  0  0
   -6.7225   -0.1166    0.0000 C   0  0  0  0  0  0  0  0  0  0  0  0
    3.7177   -6.8973    0.0000 C   0  0  0  0  0  0  0  0  0  0  0  0
   -5.4188   -6.5288    0.0000 C   0  0  0  0  0  0  0  0  0  0  0  0
   -5.9031   -7.1953    0.0000 F   0  0  0  0  0  0  0  0  0  0  0  0
   -4.1103   -0.0303    0.0000 F   0  0  0  0  0  0  0  0  0  0  0  0
   -3.5568   -1.7357    0.0000 F   0  0  0  0  0  0  0  0  0  0  0  0
   -6.4568   -5.4905    0.0000 F   0  0  0  0  0  0  0  0  0  0  0  0
   11.1075   -5.3915    0.0000 C   0  0  0  0  0  0  0  0  0  0  0  0
   11.5911   -6.0585    0.0000 C   0  0  0  0  0  0  0  0  0  0  0  0
   12.3749   -5.8046    0.0000 C   0  0  0  0  0  0  0  0  0  0  0  0
   12.3745   -4.9813    0.0000 C   0  0  0  0  0  0  0  0  0  0  0  0
   11.5903   -4.7255    0.0000 S   0  0  0  0  0  0  0  0  0  0  0  0
   13.0413   -4.4972    0.0000 C   0  0  0  0  0  0  0  0  0  0  0  0
   13.8252   -4.7515    0.0000 S   0  0  0  0  0  0  0  0  0  0  0  0
   14.3097   -4.0853    0.0000 C   0  0  0  0  0  0  0  0  0  0  0  0
   13.8260   -3.4192    0.0000 C   0  0  0  0  0  0  0  0  0  0  0  0
   13.0422   -3.6731    0.0000 C   0  0  0  0  0  0  0  0  0  0  0  0
   13.9974   -2.6133    0.0000 C   0  0  0  0  0  0  0  0  0  0  0  0
   13.3849   -2.0613    0.0000 C   0  0  0  0  0  0  0  0  0  0  0  0
   12.6015   -2.3157    0.0000 C   0  0  0  0  0  0  0  0  0  0  0  0
   12.4301   -3.1216    0.0000 C   0  0  0  0  0  0  0  0  0  0  0  0
   13.3857   -1.2381    0.0000 C   0  0  0  0  0  0  0  0  0  0  0  0
   12.6015   -0.9823    0.0000 S   0  0  0  0  0  0  0  0  0  0  0  0
   12.1174   -1.6490    0.0000 C   0  0  0  0  0  0  0  0  0  0  0  0
   15.1336   -4.0853    0.0000 C   0  0  0  0  0  0  0  0  0  0  0  0
   15.6180   -4.7518    0.0000 C   0  0  0  0  0  0  0  0  0  0  0  0
   16.4012   -4.4979    0.0000 C   0  0  0  0  0  0  0  0  0  0  0  0
   15.6183   -3.4185    0.0000 S   0  0  0  0  0  0  0  0  0  0  0  0
   14.7811   -2.3590    0.0000 O   0  0  0  0  0  0  0  0  0  0  0  0
   11.6465   -3.3760    0.0000 O   0  0  0  0  0  0  0  0  0  0  0  0
   14.0528   -0.7546    0.0000 C   0  0  0  0  0  0  0  0  0  0  0  0
   14.8051   -1.0905    0.0000 C   0  0  0  0  0  0  0  0  0  0  0  0
   11.2935   -1.6490    0.0000 C   0  0  0  0  0  0  0  0  0  0  0  0
   10.8816   -2.3625    0.0000 C   0  0  0  0  0  0  0  0  0  0  0  0
   10.2836   -5.3915    0.0000 C   0  0  0  0  0  0  0  0  0  0  0  0
    9.7993   -4.7249    0.0000 C   0  0  0  0  0  0  0  0  0  0  0  0
    9.0159   -4.9797    0.0000 C   0  0  0  0  0  0  0  0  0  0  0  0
    9.0154   -5.8038    0.0000 C   0  0  0  0  0  0  0  0  0  0  0  0
    9.7994   -6.0578    0.0000 S   0  0  0  0  0  0  0  0  0  0  0  0
    8.2315   -4.7251    0.0000 S   0  0  0  0  0  0  0  0  0  0  0  0
    7.7477   -5.3921    0.0000 C   0  0  0  0  0  0  0  0  0  0  0  0
    8.2320   -6.0586    0.0000 C   0  0  0  0  0  0  0  0  0  0  0  0
    6.9285   -5.4781    0.0000 C   0  0  0  0  0  0  0  0  0  0  0  0
    6.5936   -6.2307    0.0000 C   0  0  0  0  0  0  0  0  0  0  0  0
    7.0779   -6.8973    0.0000 C   0  0  0  0  0  0  0  0  0  0  0  0
    7.8971   -6.8112    0.0000 C   0  0  0  0  0  0  0  0  0  0  0  0
    5.8098   -6.4849    0.0000 C   0  0  0  0  0  0  0  0  0  0  0  0
    5.8097   -7.3096    0.0000 C   0  0  0  0  0  0  0  0  0  0  0  0
    6.5937   -7.5636    0.0000 S   0  0  0  0  0  0  0  0  0  0  0  0
    5.0258   -6.2309    0.0000 S   0  0  0  0  0  0  0  0  0  0  0  0
    4.5416   -6.8973    0.0000 C   0  0  0  0  0  0  0  0  0  0  0  0
    5.0259   -7.5638    0.0000 C   0  0  0  0  0  0  0  0  0  0  0  0
    6.4441   -4.8116    0.0000 C   0  0  0  0  0  0  0  0  0  0  0  0
    8.3815   -7.4777    0.0000 C   0  0  0  0  0  0  0  0  0  0  0  0
    6.6985   -4.0282    0.0000 C   0  0  0  0  0  0  0  0  0  0  0  0
    6.0317   -3.5434    0.0000 C   0  0  0  0  0  0  0  0  0  0  0  0
    5.3652   -4.0277    0.0000 C   0  0  0  0  0  0  0  0  0  0  0  0
    5.6204   -4.8116    0.0000 S   0  0  0  0  0  0  0  0  0  0  0  0
    8.1270   -8.2613    0.0000 C   0  0  0  0  0  0  0  0  0  0  0  0
    9.4602   -8.2612    0.0000 C   0  0  0  0  0  0  0  0  0  0  0  0
    9.2054   -7.4777    0.0000 S   0  0  0  0  0  0  0  0  0  0  0  0
   10.2438   -8.5157    0.0000 C   0  0  0  0  0  0  0  0  0  0  0  0
   10.8264   -7.9331    0.0000 C   0  0  0  0  0  0  0  0  0  0  0  0
    4.5816   -3.7734    0.0000 C   0  0  0  0  0  0  0  0  0  0  0  0
    3.9990   -4.3560    0.0000 C   0  0  0  0  0  0  0  0  0  0  0  0
   16.4016   -3.6738    0.0000 C   0  0  0  0  0  0  0  0  0  0  0  0
    8.7935   -8.7457    0.0000 C   0  0  0  0  0  0  0  0  0  0  0  0
    8.7935   -9.5696    0.0000 F   0  0  0  0  0  0  0  0  0  0  0  0
    6.0317   -2.7195    0.0000 F   0  0  0  0  0  0  0  0  0  0  0  0
    7.4821   -3.7737    0.0000 F   0  0  0  0  0  0  0  0  0  0  0  0
    7.3434   -8.5160    0.0000 F   0  0  0  0  0  0  0  0  0  0  0  0
  1  2  2  0      
  2  3  1  0      
  3  4  2  0      
  4  5  1  0      
  5  1  1  0      
  4  6  1  0      
  6  7  1  0      
  7  8  1  0      
  8  9  2  0      
  9 10  1  0      
 10  6  2  0      
  9 11  1  0      
 11 12  1  0      
 12 13  1  0      
 13 14  1  0      
 14 10  1  0      
 12 15  2  0      
 15 16  1  0      
 16 17  1  0      
 17 13  2  0      
  8 18  1  0      
 18 19  2  0      
 19 20  1  0      
 20 59  2  0      
 59 21  1  0      
 21 18  1  0      
 11 22  2  0      
 14 23  2  0      
 15 24  1  0      
 24 25  1  0      
 17 26  1  0      
 26 27  1  0      
  1 28  1  0      
 28 29  2  0      
 29 30  1  0      
 30 31  2  0      
 31 32  1  0      
 32 28  1  0      
 30 33  1  0      
 33 34  1  0      
 34 35  2  0      
 35 31  1  0      
 34 36  1  0      
 36 37  2  0      
 37 38  1  0      
 38 39  2  0      
 39 35  1  0      
 37 40  1  0      
 40 41  2  0      
 41 42  1  0      
 42 38  1  0      
 40 43  1  0      
 43 44  1  0      
 44 45  2  0      
 45 41  1  0      
 36 46  1  0      
 39 47  1  0      
 46 48  2  0      
 48 49  1  0      
 49 50  2  0      
 50 51  1  0      
 51 46  1  0      
 47 52  2  0      
 52 60  1  0      
 60 53  2  0      
 53 54  1  0      
 54 47  1  0      
 53 55  1  0      
 55 56  1  0      
 50 57  1  0      
 57 58  1  0      
 60 61  1  0      
 49 62  1  0      
 48 63  1  0      
 52 64  1  0      
 65 66  2  0      
 66 67  1  0      
 67 68  2  0      
 68 69  1  0      
 69 65  1  0      
 68 70  1  0      
 70 71  1  0      
 71 72  1  0      
 72 73  2  0      
 73 74  1  0      
 74 70  2  0      
 73 75  1  0      
 75 76  1  0      
 76 77  1  0      
 77 78  1  0      
 78 74  1  0      
 76 79  2  0      
 79 80  1  0      
 80 81  1  0      
 81 77  2  0      
 72 82  1  0      
 82 83  2  0      
 83 84  1  0      
 84123  2  0      
123 85  1  0      
 85 82  1  0      
 75 86  2  0      
 78 87  2  0      
 79 88  1  0      
 88 89  1  0      
 81 90  1  0      
 90 91  1  0      
 65 92  1  0      
 92 93  2  0      
 93 94  1  0      
 94 95  2  0      
 95 96  1  0      
 96 92  1  0      
 94 97  1  0      
 97 98  1  0      
 98 99  2  0      
 99 95  1  0      
 98100  1  0      
100101  2  0      
101102  1  0      
102103  2  0      
103 99  1  0      
101104  1  0      
104105  2  0      
105106  1  0      
106102  1  0      
104107  1  0      
107108  1  0      
108109  2  0      
109105  1  0      
100110  1  0      
103111  1  0      
110112  2  0      
112113  1  0      
113114  2  0      
114115  1  0      
115110  1  0      
111116  2  0      
116124  1  0      
124117  2  0      
117118  1  0      
118111  1  0      
117119  1  0      
119120  1  0      
114121  1  0      
121122  1  0      
124125  1  0      
113126  1  0      
112127  1  0      
116128  1  0      
129130  2  0      
130131  1  0      
131132  2  0      
132133  1  0      
133129  1  0      
132134  1  0      
134135  1  0      
135136  1  0      
136137  2  0      
137138  1  0      
138134  2  0      
137139  1  0      
139140  1  0      
140141  1  0      
141142  1  0      
142138  1  0      
140143  2  0      
143144  1  0      
144145  1  0      
145141  2  0      
136146  1  0      
146147  2  0      
147148  1  0      
148187  2  0      
187149  1  0      
149146  1  0      
139150  2  0      
142151  2  0      
143152  1  0      
152153  1  0      
145154  1  0      
154155  1  0      
129156  1  0      
156157  2  0      
157158  1  0      
158159  2  0      
159160  1  0      
160156  1  0      
158161  1  0      
161162  1  0      
162163  2  0      
163159  1  0      
162164  1  0      
164165  2  0      
165166  1  0      
166167  2  0      
167163  1  0      
165168  1  0      
168169  2  0      
169170  1  0      
170166  1  0      
168171  1  0      
171172  1  0      
172173  2  0      
173169  1  0      
164174  1  0      
167175  1  0      
174176  2  0      
176177  1  0      
177178  2  0      
178179  1  0      
179174  1  0      
175180  2  0      
180188  1  0      
188181  2  0      
181182  1  0      
182175  1  0      
181183  1  0      
183184  1  0      
178185  1  0      
185186  1  0      
188189  1  0      
177190  1  0      
176191  1  0      
180192  1  0      
 59108  1  0      
123172  1  0      
M  END
$$$$
