PDBT-T1.sdf
  ChemDraw11172110402D

  0  0  0     0  0              0 V3000
M  V30 BEGIN CTAB
M  V30 COUNTS 180 215 0 0 0
M  V30 BEGIN ATOM
M  V30 1 C -11.822240 3.470643 0.000000 0
M  V30 2 C -11.822964 2.647089 0.000000 0
M  V30 3 C -11.039176 2.391128 0.000000 0
M  V30 4 C -10.554732 3.058505 0.000000 0
M  V30 5 S -11.039900 3.725880 0.000000 0
M  V30 6 C -9.730455 3.058505 0.000000 0
M  V30 7 S -9.246011 2.391852 0.000000 0
M  V30 8 C -8.462223 2.645642 0.000000 0
M  V30 9 C -8.462223 3.469920 0.000000 0
M  V30 10 C -9.246011 3.725157 0.000000 0
M  V30 11 C -7.849799 4.021608 0.000000 0
M  V30 12 C -8.021163 4.827810 0.000000 0
M  V30 13 C -8.804950 5.083047 0.000000 0
M  V30 14 C -9.417374 4.531359 0.000000 0
M  V30 15 C -7.536718 5.494461 0.000000 0
M  V30 16 S -8.021163 6.161838 0.000000 0
M  V30 17 C -8.804950 5.906601 0.000000 0
M  V30 18 C -7.795571 2.161198 0.000000 0
M  V30 19 C -7.795571 1.336920 0.000000 0
M  V30 20 C -7.012507 1.081683 0.000000 0
M  V30 21 S -7.011061 2.415713 0.000000 0
M  V30 22 O -7.066013 3.767093 0.000000 0
M  V30 23 O -10.201161 4.786595 0.000000 0
M  V30 24 C -6.712441 5.494461 0.000000 0
M  V30 25 C -6.300302 4.780811 0.000000 0
M  V30 26 C -9.472325 6.391045 0.000000 0
M  V30 27 C -10.225021 6.055550 0.000000 0
M  V30 28 C -12.488893 3.955087 0.000000 0
M  V30 29 C -12.488893 4.779364 0.000000 0
M  V30 30 C -13.272680 5.034602 0.000000 0
M  V30 31 C -13.757124 4.367226 0.000000 0
M  V30 32 S -13.272680 3.700573 0.000000 0
M  V30 33 S -13.757124 5.701254 0.000000 0
M  V30 34 C -14.541634 5.446741 0.000000 0
M  V30 35 C -14.541634 4.622463 0.000000 0
M  V30 36 C -15.255284 5.858880 0.000000 0
M  V30 37 C -15.968936 5.446741 0.000000 0
M  V30 38 C -15.968936 4.622463 0.000000 0
M  V30 39 C -15.255284 4.210324 0.000000 0
M  V30 40 C -16.752723 5.701254 0.000000 0
M  V30 41 C -17.237890 5.034602 0.000000 0
M  V30 42 S -16.752723 4.367226 0.000000 0
M  V30 43 S -17.237890 6.367907 0.000000 0
M  V30 44 C -18.021677 6.113394 0.000000 0
M  V30 45 C -18.021677 5.289115 0.000000 0
M  V30 46 C -15.255284 6.683157 0.000000 0
M  V30 47 C -15.255284 3.386047 0.000000 0
M  V30 48 C -14.588633 7.167602 0.000000 0
M  V30 49 C -14.843146 7.951389 0.000000 0
M  V30 50 C -15.667424 7.951389 0.000000 0
M  V30 51 S -15.921937 7.167602 0.000000 0
M  V30 52 C -15.921937 2.901603 0.000000 0
M  V30 53 C -15.667424 2.117092 0.000000 0
M  V30 54 C -14.843146 2.117092 0.000000 0
M  V30 55 S -14.588633 2.901603 0.000000 0
M  V30 56 C -14.358702 1.450440 0.000000 0
M  V30 57 C -13.538763 1.536483 0.000000 0
M  V30 58 C -16.151868 8.618041 0.000000 0
M  V30 59 C -16.971807 8.531998 0.000000 0
M  V30 60 C 0.338750 -1.378858 0.000000 0
M  V30 61 C 0.338026 -2.203136 0.000000 0
M  V30 62 C 1.121814 -2.458372 0.000000 0
M  V30 63 C 1.605534 -1.791720 0.000000 0
M  V30 64 S 1.121090 -1.123621 0.000000 0
M  V30 65 C 2.429812 -1.791720 0.000000 0
M  V30 66 S 2.914978 -2.458372 0.000000 0
M  V30 67 C 3.698766 -2.203858 0.000000 0
M  V30 68 C 3.698766 -1.380304 0.000000 0
M  V30 69 C 2.914978 -1.125067 0.000000 0
M  V30 70 C 4.311189 -0.828617 0.000000 0
M  V30 71 C 4.139827 -0.021692 0.000000 0
M  V30 72 C 3.356040 0.232822 0.000000 0
M  V30 73 C 2.743616 -0.318866 0.000000 0
M  V30 74 C 4.624270 0.644238 0.000000 0
M  V30 75 S 4.139827 1.312337 0.000000 0
M  V30 76 C 3.356040 1.057100 0.000000 0
M  V30 77 C 4.365418 -2.689026 0.000000 0
M  V30 78 C 4.365418 -3.513303 0.000000 0
M  V30 79 C 5.148482 -3.768540 0.000000 0
M  V30 80 S 5.149928 -2.434512 0.000000 0
M  V30 81 O 5.094977 -1.083130 0.000000 0
M  V30 82 O 1.959829 -0.063629 0.000000 0
M  V30 83 C 5.448549 0.644238 0.000000 0
M  V30 84 C 5.860687 -0.069413 0.000000 0
M  V30 85 C 2.688664 1.540821 0.000000 0
M  V30 86 C 1.935968 1.205325 0.000000 0
M  V30 87 C -0.327903 -0.894413 0.000000 0
M  V30 88 C -0.327903 -0.070136 0.000000 0
M  V30 89 C -1.111691 0.184378 0.000000 0
M  V30 90 C -1.596857 -0.482275 0.000000 0
M  V30 91 S -1.111691 -1.148928 0.000000 0
M  V30 92 S -1.596857 0.851754 0.000000 0
M  V30 93 C -2.380644 0.596517 0.000000 0
M  V30 94 C -2.380644 -0.227762 0.000000 0
M  V30 95 C -3.094296 1.008655 0.000000 0
M  V30 96 C -3.807947 0.596517 0.000000 0
M  V30 97 C -3.807947 -0.227762 0.000000 0
M  V30 98 C -3.094296 -0.639900 0.000000 0
M  V30 99 C -4.591733 0.851754 0.000000 0
M  V30 100 C -5.076901 0.184378 0.000000 0
M  V30 101 S -4.591733 -0.482275 0.000000 0
M  V30 102 S -5.076901 1.518406 0.000000 0
M  V30 103 C -5.860687 1.263892 0.000000 0
M  V30 104 C -5.860687 0.439615 0.000000 0
M  V30 105 C -3.094296 1.832933 0.000000 0
M  V30 106 C -6.527340 1.748336 0.000000 0
M  V30 107 C -3.094296 -1.464178 0.000000 0
M  V30 108 C -2.427643 2.317378 0.000000 0
M  V30 109 C -2.682156 3.101887 0.000000 0
M  V30 110 C -3.506435 3.101887 0.000000 0
M  V30 111 S -3.760949 2.317378 0.000000 0
M  V30 112 C -3.760949 -1.948621 0.000000 0
M  V30 113 C -3.506435 -2.732409 0.000000 0
M  V30 114 C -2.682156 -2.732409 0.000000 0
M  V30 115 S -2.427643 -1.948621 0.000000 0
M  V30 116 C -2.197712 -3.399062 0.000000 0
M  V30 117 C -1.377773 -3.313019 0.000000 0
M  V30 118 C -3.990878 3.768540 0.000000 0
M  V30 119 C -4.810817 3.682497 0.000000 0
M  V30 120 C 12.499738 -6.229082 0.000000 0
M  V30 121 C 12.499016 -7.052637 0.000000 0
M  V30 122 C 13.282802 -7.308597 0.000000 0
M  V30 123 C 13.766523 -6.641221 0.000000 0
M  V30 124 S 13.282080 -5.973844 0.000000 0
M  V30 125 C 14.590802 -6.641221 0.000000 0
M  V30 126 S 15.075968 -7.307874 0.000000 0
M  V30 127 C 15.859755 -7.054082 0.000000 0
M  V30 128 C 15.859755 -6.229805 0.000000 0
M  V30 129 C 15.075246 -5.974568 0.000000 0
M  V30 130 C 16.472179 -5.678117 0.000000 0
M  V30 131 C 16.300816 -4.871916 0.000000 0
M  V30 132 C 15.517030 -4.617402 0.000000 0
M  V30 133 C 14.904606 -5.168366 0.000000 0
M  V30 134 C 16.785260 -4.205263 0.000000 0
M  V30 135 S 16.300816 -3.537888 0.000000 0
M  V30 136 C 15.517030 -3.793124 0.000000 0
M  V30 137 C 16.526408 -7.538527 0.000000 0
M  V30 138 C 16.526408 -8.362805 0.000000 0
M  V30 139 C 17.309472 -8.618041 0.000000 0
M  V30 140 S 17.310918 -7.284013 0.000000 0
M  V30 141 O 17.255967 -5.932631 0.000000 0
M  V30 142 O 14.120095 -4.913853 0.000000 0
M  V30 143 C 17.609538 -4.205263 0.000000 0
M  V30 144 C 18.021677 -4.918914 0.000000 0
M  V30 145 C 14.849653 -3.308681 0.000000 0
M  V30 146 C 14.096958 -3.644176 0.000000 0
M  V30 147 C 17.794639 -7.952111 0.000000 0
M  V30 148 C 11.833087 -5.744638 0.000000 0
M  V30 149 C 11.833087 -4.920360 0.000000 0
M  V30 150 C 11.049299 -4.665123 0.000000 0
M  V30 151 C 10.564132 -5.332499 0.000000 0
M  V30 152 S 11.049299 -5.999152 0.000000 0
M  V30 153 S 10.564132 -3.998471 0.000000 0
M  V30 154 C 9.780346 -4.252985 0.000000 0
M  V30 155 C 9.780346 -5.077262 0.000000 0
M  V30 156 C 9.066694 -3.840845 0.000000 0
M  V30 157 C 8.353043 -4.252985 0.000000 0
M  V30 158 C 8.353043 -5.077262 0.000000 0
M  V30 159 C 9.066694 -5.489401 0.000000 0
M  V30 160 C 7.568533 -3.998471 0.000000 0
M  V30 161 C 7.084089 -4.665123 0.000000 0
M  V30 162 S 7.568533 -5.332499 0.000000 0
M  V30 163 S 7.084089 -3.331818 0.000000 0
M  V30 164 C 6.300302 -3.586332 0.000000 0
M  V30 165 C 6.300302 -4.410609 0.000000 0
M  V30 166 C 9.066694 -3.016568 0.000000 0
M  V30 167 C 5.633650 -3.101888 0.000000 0
M  V30 168 C 9.066694 -6.313679 0.000000 0
M  V30 169 C 9.733347 -2.532124 0.000000 0
M  V30 170 C 9.478833 -1.748337 0.000000 0
M  V30 171 C 8.654555 -1.748337 0.000000 0
M  V30 172 S 8.400041 -2.532124 0.000000 0
M  V30 173 C 8.400041 -6.798123 0.000000 0
M  V30 174 C 8.654555 -7.582632 0.000000 0
M  V30 175 C 9.478833 -7.582632 0.000000 0
M  V30 176 S 9.733347 -6.798123 0.000000 0
M  V30 177 C 9.963277 -8.249285 0.000000 0
M  V30 178 C 10.783217 -8.163243 0.000000 0
M  V30 179 C 8.170111 -1.081684 0.000000 0
M  V30 180 C 7.350172 -1.167728 0.000000 0
M  V30 END ATOM
M  V30 BEGIN BOND
M  V30 1 2 1 2
M  V30 2 1 2 3
M  V30 3 2 3 4
M  V30 4 1 4 5
M  V30 5 1 5 1
M  V30 6 1 4 6
M  V30 7 1 6 7
M  V30 8 1 7 8
M  V30 9 2 8 9
M  V30 10 1 9 10
M  V30 11 2 10 6
M  V30 12 1 9 11
M  V30 13 1 11 12
M  V30 14 1 12 13
M  V30 15 1 13 14
M  V30 16 1 14 10
M  V30 17 2 12 15
M  V30 18 1 15 16
M  V30 19 1 16 17
M  V30 20 2 17 13
M  V30 21 1 8 18
M  V30 22 2 18 19
M  V30 23 1 19 20
M  V30 24 2 20 106
M  V30 25 1 106 21
M  V30 26 1 21 18
M  V30 27 2 11 22
M  V30 28 2 14 23
M  V30 29 1 15 24
M  V30 30 1 24 25
M  V30 31 1 17 26
M  V30 32 1 26 27
M  V30 33 1 1 28
M  V30 34 2 28 29
M  V30 35 1 29 30
M  V30 36 2 30 31
M  V30 37 1 31 32
M  V30 38 1 32 28
M  V30 39 1 30 33
M  V30 40 1 33 34
M  V30 41 2 34 35
M  V30 42 1 35 31
M  V30 43 1 34 36
M  V30 44 2 36 37
M  V30 45 1 37 38
M  V30 46 2 38 39
M  V30 47 1 39 35
M  V30 48 1 37 40
M  V30 49 2 40 41
M  V30 50 1 41 42
M  V30 51 1 42 38
M  V30 52 1 40 43
M  V30 53 1 43 44
M  V30 54 2 44 45
M  V30 55 1 45 41
M  V30 56 1 36 46
M  V30 57 1 39 47
M  V30 58 2 46 48
M  V30 59 1 48 49
M  V30 60 2 49 50
M  V30 61 1 50 51
M  V30 62 1 51 46
M  V30 63 2 47 52
M  V30 64 1 52 53
M  V30 65 2 53 54
M  V30 66 1 54 55
M  V30 67 1 55 47
M  V30 68 1 54 56
M  V30 69 1 56 57
M  V30 70 1 50 58
M  V30 71 1 58 59
M  V30 72 2 60 61
M  V30 73 1 61 62
M  V30 74 2 62 63
M  V30 75 1 63 64
M  V30 76 1 64 60
M  V30 77 1 63 65
M  V30 78 1 65 66
M  V30 79 1 66 67
M  V30 80 2 67 68
M  V30 81 1 68 69
M  V30 82 2 69 65
M  V30 83 1 68 70
M  V30 84 1 70 71
M  V30 85 1 71 72
M  V30 86 1 72 73
M  V30 87 1 73 69
M  V30 88 2 71 74
M  V30 89 1 74 75
M  V30 90 1 75 76
M  V30 91 2 76 72
M  V30 92 1 67 77
M  V30 93 2 77 78
M  V30 94 1 78 79
M  V30 95 2 79 167
M  V30 96 1 167 80
M  V30 97 1 80 77
M  V30 98 2 70 81
M  V30 99 2 73 82
M  V30 100 1 74 83
M  V30 101 1 83 84
M  V30 102 1 76 85
M  V30 103 1 85 86
M  V30 104 1 60 87
M  V30 105 2 87 88
M  V30 106 1 88 89
M  V30 107 2 89 90
M  V30 108 1 90 91
M  V30 109 1 91 87
M  V30 110 1 89 92
M  V30 111 1 92 93
M  V30 112 2 93 94
M  V30 113 1 94 90
M  V30 114 1 93 95
M  V30 115 2 95 96
M  V30 116 1 96 97
M  V30 117 2 97 98
M  V30 118 1 98 94
M  V30 119 1 96 99
M  V30 120 2 99 100
M  V30 121 1 100 101
M  V30 122 1 101 97
M  V30 123 1 99 102
M  V30 124 1 102 103
M  V30 125 2 103 104
M  V30 126 1 104 100
M  V30 127 1 95 105
M  V30 128 1 103 106
M  V30 129 1 98 107
M  V30 130 2 105 108
M  V30 131 1 108 109
M  V30 132 2 109 110
M  V30 133 1 110 111
M  V30 134 1 111 105
M  V30 135 2 107 112
M  V30 136 1 112 113
M  V30 137 2 113 114
M  V30 138 1 114 115
M  V30 139 1 115 107
M  V30 140 1 114 116
M  V30 141 1 116 117
M  V30 142 1 110 118
M  V30 143 1 118 119
M  V30 144 2 120 121
M  V30 145 1 121 122
M  V30 146 2 122 123
M  V30 147 1 123 124
M  V30 148 1 124 120
M  V30 149 1 123 125
M  V30 150 1 125 126
M  V30 151 1 126 127
M  V30 152 2 127 128
M  V30 153 1 128 129
M  V30 154 2 129 125
M  V30 155 1 128 130
M  V30 156 1 130 131
M  V30 157 1 131 132
M  V30 158 1 132 133
M  V30 159 1 133 129
M  V30 160 2 131 134
M  V30 161 1 134 135
M  V30 162 1 135 136
M  V30 163 2 136 132
M  V30 164 1 127 137
M  V30 165 2 137 138
M  V30 166 1 138 139
M  V30 167 2 139 147
M  V30 168 1 147 140
M  V30 169 1 140 137
M  V30 170 2 130 141
M  V30 171 2 133 142
M  V30 172 1 134 143
M  V30 173 1 143 144
M  V30 174 1 136 145
M  V30 175 1 145 146
M  V30 176 1 120 148
M  V30 177 2 148 149
M  V30 178 1 149 150
M  V30 179 2 150 151
M  V30 180 1 151 152
M  V30 181 1 152 148
M  V30 182 1 150 153
M  V30 183 1 153 154
M  V30 184 2 154 155
M  V30 185 1 155 151
M  V30 186 1 154 156
M  V30 187 2 156 157
M  V30 188 1 157 158
M  V30 189 2 158 159
M  V30 190 1 159 155
M  V30 191 1 157 160
M  V30 192 2 160 161
M  V30 193 1 161 162
M  V30 194 1 162 158
M  V30 195 1 160 163
M  V30 196 1 163 164
M  V30 197 2 164 165
M  V30 198 1 165 161
M  V30 199 1 156 166
M  V30 200 1 164 167
M  V30 201 1 159 168
M  V30 202 2 166 169
M  V30 203 1 169 170
M  V30 204 2 170 171
M  V30 205 1 171 172
M  V30 206 1 172 166
M  V30 207 2 168 173
M  V30 208 1 173 174
M  V30 209 2 174 175
M  V30 210 1 175 176
M  V30 211 1 176 168
M  V30 212 1 175 177
M  V30 213 1 177 178
M  V30 214 1 171 179
M  V30 215 1 179 180
M  V30 END BOND
M  V30 END CTAB
M  END
$$$$
