PDBT-T1.sdf
  xtb     12202113013D
 energy: -477.334260285413 gnorm: 0.000212834402 xtb: 6.4.1 (unknown)
272307  0     0  0            999 V2000
    2.3799    7.2553    2.4880 C   0  0  0  0  0  0  0  0  0  0  0  0
    1.5504    8.2296    1.9663 C   0  0  0  0  0  0  0  0  0  0  0  0
    0.2149    7.8456    1.9727 C   0  0  0  0  0  0  0  0  0  0  0  0
   -0.0071    6.6079    2.5563 C   0  0  0  0  0  0  0  0  0  0  0  0
    1.4866    5.9066    3.1033 S   0  0  0  0  0  0  0  0  0  0  0  0
   -1.2653    5.9527    2.6230 C   0  0  0  0  0  0  0  0  0  0  0  0
   -2.5022    6.4531    1.4927 S   0  0  0  0  0  0  0  0  0  0  0  0
   -3.6443    5.2727    2.0921 C   0  0  0  0  0  0  0  0  0  0  0  0
   -3.1051    4.5989    3.1839 C   0  0  0  0  0  0  0  0  0  0  0  0
   -1.7415    4.9398    3.4426 C   0  0  0  0  0  0  0  0  0  0  0  0
   -3.8507    3.6776    4.0187 C   0  0  0  0  0  0  0  0  0  0  0  0
   -3.0826    3.0603    5.0932 C   0  0  0  0  0  0  0  0  0  0  0  0
   -1.6969    3.3477    5.3095 C   0  0  0  0  0  0  0  0  0  0  0  0
   -0.9458    4.2635    4.4553 C   0  0  0  0  0  0  0  0  0  0  0  0
   -3.5904    2.1569    5.9941 C   0  0  0  0  0  0  0  0  0  0  0  0
   -2.3659    1.6455    7.1035 S   0  0  0  0  0  0  0  0  0  0  0  0
   -1.1637    2.6441    6.3611 C   0  0  0  0  0  0  0  0  0  0  0  0
   -4.8204    5.0291    1.3400 C   0  0  0  0  0  0  0  0  0  0  0  0
   -5.0895    5.5711    0.0899 C   0  0  0  0  0  0  0  0  0  0  0  0
   -6.1503    4.9674   -0.5747 C   0  0  0  0  0  0  0  0  0  0  0  0
   -5.9878    3.7997    1.7310 S   0  0  0  0  0  0  0  0  0  0  0  0
   -5.0511    3.4578    3.8628 O   0  0  0  0  0  0  0  0  0  0  0  0
    0.2663    4.4206    4.5687 O   0  0  0  0  0  0  0  0  0  0  0  0
   -4.9557    1.5737    6.0678 C   0  0  0  0  0  0  0  0  0  0  0  0
   -5.1240    0.4542    5.0359 C   0  0  0  0  0  0  0  0  0  0  0  0
    0.2126    2.6940    6.9186 C   0  0  0  0  0  0  0  0  0  0  0  0
    0.3803    3.9038    7.8427 C   0  0  0  0  0  0  0  0  0  0  0  0
    3.8048    7.2584    2.5645 C   0  0  0  0  0  0  0  0  0  0  0  0
    4.6616    8.3312    2.6138 C   0  0  0  0  0  0  0  0  0  0  0  0
    5.9967    7.9170    2.6806 C   0  0  0  0  0  0  0  0  0  0  0  0
    6.1749    6.5389    2.6464 C   0  0  0  0  0  0  0  0  0  0  0  0
    4.6547    5.7284    2.5706 S   0  0  0  0  0  0  0  0  0  0  0  0
    7.4957    8.7801    2.8345 S   0  0  0  0  0  0  0  0  0  0  0  0
    8.3725    7.2665    2.8472 C   0  0  0  0  0  0  0  0  0  0  0  0
    7.5337    6.1293    2.7257 C   0  0  0  0  0  0  0  0  0  0  0  0
    9.7444    7.1925    3.0341 C   0  0  0  0  0  0  0  0  0  0  0  0
   10.3115    5.9119    3.0398 C   0  0  0  0  0  0  0  0  0  0  0  0
    9.4831    4.7752    2.8857 C   0  0  0  0  0  0  0  0  0  0  0  0
    8.0983    4.8439    2.7652 C   0  0  0  0  0  0  0  0  0  0  0  0
   11.6742    5.5199    3.1312 C   0  0  0  0  0  0  0  0  0  0  0  0
   11.8765    4.1552    3.0178 C   0  0  0  0  0  0  0  0  0  0  0  0
   10.3912    3.2742    2.8329 S   0  0  0  0  0  0  0  0  0  0  0  0
   13.1772    6.3478    3.3134 S   0  0  0  0  0  0  0  0  0  0  0  0
   14.0363    4.8518    3.2268 C   0  0  0  0  0  0  0  0  0  0  0  0
   13.2297    3.7700    3.0737 C   0  0  0  0  0  0  0  0  0  0  0  0
   10.5280    8.4027    3.2231 C   0  0  0  0  0  0  0  0  0  0  0  0
    7.3237    3.6127    2.7610 C   0  0  0  0  0  0  0  0  0  0  0  0
   10.6087    9.4829    2.3977 C   0  0  0  0  0  0  0  0  0  0  0  0
   11.4398   10.5029    2.9061 C   0  0  0  0  0  0  0  0  0  0  0  0
   11.9693   10.2140    4.1245 C   0  0  0  0  0  0  0  0  0  0  0  0
   11.4545    8.6518    4.6732 S   0  0  0  0  0  0  0  0  0  0  0  0
    7.4457    2.5931    3.6633 C   0  0  0  0  0  0  0  0  0  0  0  0
    6.5820    1.5129    3.4048 C   0  0  0  0  0  0  0  0  0  0  0  0
    5.8105    1.6908    2.2973 C   0  0  0  0  0  0  0  0  0  0  0  0
    6.1363    3.2198    1.5552 S   0  0  0  0  0  0  0  0  0  0  0  0
    4.7854    0.7770    1.7145 C   0  0  0  0  0  0  0  0  0  0  0  0
    5.2912   -0.6599    1.5992 C   0  0  0  0  0  0  0  0  0  0  0  0
   12.9186   11.0178    4.9441 C   0  0  0  0  0  0  0  0  0  0  0  0
   14.3293   10.4285    4.8799 C   0  0  0  0  0  0  0  0  0  0  0  0
   -9.5230   -8.3642    0.0483 C   0  0  0  0  0  0  0  0  0  0  0  0
   -9.2707   -9.2731    1.0618 C   0  0  0  0  0  0  0  0  0  0  0  0
   -8.3987  -10.2792    0.6686 C   0  0  0  0  0  0  0  0  0  0  0  0
   -7.9933  -10.1833   -0.6539 C   0  0  0  0  0  0  0  0  0  0  0  0
   -8.8094   -8.8696   -1.4532 S   0  0  0  0  0  0  0  0  0  0  0  0
   -6.8448  -10.8050   -1.2060 C   0  0  0  0  0  0  0  0  0  0  0  0
   -5.6506  -11.4231   -0.0820 S   0  0  0  0  0  0  0  0  0  0  0  0
   -4.4365  -11.5471   -1.3350 C   0  0  0  0  0  0  0  0  0  0  0  0
   -5.0011  -11.2976   -2.5789 C   0  0  0  0  0  0  0  0  0  0  0  0
   -6.3532  -10.8471   -2.5026 C   0  0  0  0  0  0  0  0  0  0  0  0
   -4.3033  -11.4938   -3.8389 C   0  0  0  0  0  0  0  0  0  0  0  0
   -5.1427  -11.3092   -5.0202 C   0  0  0  0  0  0  0  0  0  0  0  0
   -6.4481  -10.7234   -4.9437 C   0  0  0  0  0  0  0  0  0  0  0  0
   -7.0955  -10.4094   -3.6728 C   0  0  0  0  0  0  0  0  0  0  0  0
   -4.7664  -11.6159   -6.3036 C   0  0  0  0  0  0  0  0  0  0  0  0
   -5.9974  -11.1488   -7.4301 S   0  0  0  0  0  0  0  0  0  0  0  0
   -7.0305  -10.5542   -6.1753 C   0  0  0  0  0  0  0  0  0  0  0  0
   -3.0729  -11.5885   -0.9457 C   0  0  0  0  0  0  0  0  0  0  0  0
   -2.5853  -11.7579    0.3406 C   0  0  0  0  0  0  0  0  0  0  0  0
   -1.2923  -11.2738    0.5203 C   0  0  0  0  0  0  0  0  0  0  0  0
   -1.8448  -10.9200   -1.9798 S   0  0  0  0  0  0  0  0  0  0  0  0
   -3.1160  -11.7966   -3.9096 O   0  0  0  0  0  0  0  0  0  0  0  0
   -8.1806   -9.8388   -3.6030 O   0  0  0  0  0  0  0  0  0  0  0  0
   -3.5219  -12.2693   -6.7877 C   0  0  0  0  0  0  0  0  0  0  0  0
   -2.4107  -11.2514   -7.0565 C   0  0  0  0  0  0  0  0  0  0  0  0
   -8.3344   -9.9248   -6.5085 C   0  0  0  0  0  0  0  0  0  0  0  0
   -8.2296   -8.3972   -6.4583 C   0  0  0  0  0  0  0  0  0  0  0  0
  -10.0395   -7.0449    0.1797 C   0  0  0  0  0  0  0  0  0  0  0  0
  -10.3446   -6.3784    1.3475 C   0  0  0  0  0  0  0  0  0  0  0  0
  -10.4205   -4.9969    1.1482 C   0  0  0  0  0  0  0  0  0  0  0  0
  -10.2036   -4.5933   -0.1638 C   0  0  0  0  0  0  0  0  0  0  0  0
   -9.9538   -5.9554   -1.1933 S   0  0  0  0  0  0  0  0  0  0  0  0
  -10.5322   -3.6532    2.2466 S   0  0  0  0  0  0  0  0  0  0  0  0
  -10.1589   -2.5470    0.9363 C   0  0  0  0  0  0  0  0  0  0  0  0
  -10.0588   -3.1918   -0.3229 C   0  0  0  0  0  0  0  0  0  0  0  0
   -9.8485   -1.2095    1.1227 C   0  0  0  0  0  0  0  0  0  0  0  0
   -9.4592   -0.4852   -0.0133 C   0  0  0  0  0  0  0  0  0  0  0  0
   -9.4776   -1.0994   -1.2912 C   0  0  0  0  0  0  0  0  0  0  0  0
   -9.7520   -2.4464   -1.4715 C   0  0  0  0  0  0  0  0  0  0  0  0
   -8.9271    0.8247   -0.1086 C   0  0  0  0  0  0  0  0  0  0  0  0
   -8.5811    1.2097   -1.3976 C   0  0  0  0  0  0  0  0  0  0  0  0
   -8.9510   -0.0205   -2.5728 S   0  0  0  0  0  0  0  0  0  0  0  0
   -8.4103    1.9943    1.0474 S   0  0  0  0  0  0  0  0  0  0  0  0
   -7.6620    2.9505   -0.2167 C   0  0  0  0  0  0  0  0  0  0  0  0
   -7.8835    2.4221   -1.4684 C   0  0  0  0  0  0  0  0  0  0  0  0
   -9.8720   -0.6065    2.4502 C   0  0  0  0  0  0  0  0  0  0  0  0
   -6.7299    3.9585    0.1685 C   0  0  0  0  0  0  0  0  0  0  0  0
   -9.6543   -3.0741   -2.7847 C   0  0  0  0  0  0  0  0  0  0  0  0
   -8.8324   -0.1175    3.1815 C   0  0  0  0  0  0  0  0  0  0  0  0
   -9.2302    0.3819    4.4402 C   0  0  0  0  0  0  0  0  0  0  0  0
  -10.5659    0.2758    4.6673 C   0  0  0  0  0  0  0  0  0  0  0  0
  -11.3700   -0.4630    3.3203 S   0  0  0  0  0  0  0  0  0  0  0  0
   -8.7541   -4.0034   -3.2090 C   0  0  0  0  0  0  0  0  0  0  0  0
   -8.9450   -4.3845   -4.5544 C   0  0  0  0  0  0  0  0  0  0  0  0
   -9.9884   -3.7516   -5.1520 C   0  0  0  0  0  0  0  0  0  0  0  0
  -10.7585   -2.6486   -4.0573 S   0  0  0  0  0  0  0  0  0  0  0  0
  -10.4662   -3.8732   -6.5580 C   0  0  0  0  0  0  0  0  0  0  0  0
  -10.0985   -2.6337   -7.3763 C   0  0  0  0  0  0  0  0  0  0  0  0
  -11.3366    0.6590    5.8834 C   0  0  0  0  0  0  0  0  0  0  0  0
  -11.7385   -0.5754    6.6935 C   0  0  0  0  0  0  0  0  0  0  0  0
    5.4104    0.7313   -2.6431 C   0  0  0  0  0  0  0  0  0  0  0  0
    5.0280    1.8512   -3.3519 C   0  0  0  0  0  0  0  0  0  0  0  0
    5.6703    3.0140   -2.9356 C   0  0  0  0  0  0  0  0  0  0  0  0
    6.5554    2.8099   -1.9031 C   0  0  0  0  0  0  0  0  0  0  0  0
    6.6197    1.1317   -1.4619 S   0  0  0  0  0  0  0  0  0  0  0  0
    7.3681    3.8143   -1.2924 C   0  0  0  0  0  0  0  0  0  0  0  0
    9.0502    3.5423   -0.9693 S   0  0  0  0  0  0  0  0  0  0  0  0
    9.3140    5.2201   -0.5551 C   0  0  0  0  0  0  0  0  0  0  0  0
    8.1206    5.9310   -0.6211 C   0  0  0  0  0  0  0  0  0  0  0  0
    7.0127    5.1178   -1.0116 C   0  0  0  0  0  0  0  0  0  0  0  0
    7.9857    7.3625   -0.4000 C   0  0  0  0  0  0  0  0  0  0  0  0
    6.6221    7.8774   -0.5222 C   0  0  0  0  0  0  0  0  0  0  0  0
    5.4976    7.0214   -0.7570 C   0  0  0  0  0  0  0  0  0  0  0  0
    5.6215    5.5822   -0.9615 C   0  0  0  0  0  0  0  0  0  0  0  0
    6.2645    9.1994   -0.4100 C   0  0  0  0  0  0  0  0  0  0  0  0
    4.5520    9.3942   -0.5970 S   0  0  0  0  0  0  0  0  0  0  0  0
    4.3057    7.6974   -0.8253 C   0  0  0  0  0  0  0  0  0  0  0  0
   10.6567    5.5990   -0.2812 C   0  0  0  0  0  0  0  0  0  0  0  0
   11.7184    4.7132   -0.2416 C   0  0  0  0  0  0  0  0  0  0  0  0
   12.9544    5.3302   -0.0375 C   0  0  0  0  0  0  0  0  0  0  0  0
   11.2174    7.2301   -0.0463 S   0  0  0  0  0  0  0  0  0  0  0  0
    8.9433    8.0924   -0.1555 O   0  0  0  0  0  0  0  0  0  0  0  0
    4.6574    4.8387   -1.0571 O   0  0  0  0  0  0  0  0  0  0  0  0
    7.1307   10.3912   -0.2143 C   0  0  0  0  0  0  0  0  0  0  0  0
    6.4591   11.4882    0.6029 C   0  0  0  0  0  0  0  0  0  0  0  0
    2.9541    7.1354   -1.0728 C   0  0  0  0  0  0  0  0  0  0  0  0
    1.9625    8.1571   -1.6113 C   0  0  0  0  0  0  0  0  0  0  0  0
   12.8335    6.6844    0.0793 C   0  0  0  0  0  0  0  0  0  0  0  0
    4.8637   -0.5763   -2.7797 C   0  0  0  0  0  0  0  0  0  0  0  0
    3.8912   -0.9590   -3.6763 C   0  0  0  0  0  0  0  0  0  0  0  0
    3.4975   -2.2837   -3.4770 C   0  0  0  0  0  0  0  0  0  0  0  0
    4.1613   -2.9345   -2.4451 C   0  0  0  0  0  0  0  0  0  0  0  0
    5.3191   -1.8850   -1.7084 S   0  0  0  0  0  0  0  0  0  0  0  0
    2.2605   -3.2609   -4.2046 S   0  0  0  0  0  0  0  0  0  0  0  0
    2.5980   -4.5409   -3.0547 C   0  0  0  0  0  0  0  0  0  0  0  0
    3.6745   -4.2420   -2.1831 C   0  0  0  0  0  0  0  0  0  0  0  0
    1.8488   -5.7039   -2.9636 C   0  0  0  0  0  0  0  0  0  0  0  0
    2.2139   -6.6112   -1.9577 C   0  0  0  0  0  0  0  0  0  0  0  0
    3.2896   -6.3184   -1.0817 C   0  0  0  0  0  0  0  0  0  0  0  0
    4.0376   -5.1519   -1.1751 C   0  0  0  0  0  0  0  0  0  0  0  0
    1.5749   -7.8133   -1.5662 C   0  0  0  0  0  0  0  0  0  0  0  0
    2.1230   -8.4212   -0.4439 C   0  0  0  0  0  0  0  0  0  0  0  0
    3.5071   -7.5497    0.1535 S   0  0  0  0  0  0  0  0  0  0  0  0
    0.1733   -8.6523   -2.1003 S   0  0  0  0  0  0  0  0  0  0  0  0
    0.3147   -9.7950   -0.7796 C   0  0  0  0  0  0  0  0  0  0  0  0
    1.4130   -9.5423    0.0096 C   0  0  0  0  0  0  0  0  0  0  0  0
    0.6596   -5.8769   -3.7857 C   0  0  0  0  0  0  0  0  0  0  0  0
   -0.7848  -10.6885   -0.6236 C   0  0  0  0  0  0  0  0  0  0  0  0
    5.1119   -4.8270   -0.2516 C   0  0  0  0  0  0  0  0  0  0  0  0
   -0.3945   -5.0117   -3.8480 C   0  0  0  0  0  0  0  0  0  0  0  0
   -1.4354   -5.4654   -4.6803 C   0  0  0  0  0  0  0  0  0  0  0  0
   -1.1731   -6.6647   -5.2667 C   0  0  0  0  0  0  0  0  0  0  0  0
    0.3900   -7.2539   -4.8094 S   0  0  0  0  0  0  0  0  0  0  0  0
    6.3894   -4.4501   -0.5445 C   0  0  0  0  0  0  0  0  0  0  0  0
    7.1567   -4.1552    0.6012 C   0  0  0  0  0  0  0  0  0  0  0  0
    6.4649   -4.2905    1.7639 C   0  0  0  0  0  0  0  0  0  0  0  0
    4.8403   -4.8143    1.4661 S   0  0  0  0  0  0  0  0  0  0  0  0
    6.9472   -4.0995    3.1604 C   0  0  0  0  0  0  0  0  0  0  0  0
    7.2469   -5.4441    3.8269 C   0  0  0  0  0  0  0  0  0  0  0  0
   -2.0848   -7.4809   -6.1169 C   0  0  0  0  0  0  0  0  0  0  0  0
   -3.1324   -8.1845   -5.2484 C   0  0  0  0  0  0  0  0  0  0  0  0
    1.9090    9.1631    1.5712 H   0  0  0  0  0  0  0  0  0  0  0  0
   -0.5863    8.4463    1.5778 H   0  0  0  0  0  0  0  0  0  0  0  0
   -4.4868    6.3560   -0.3344 H   0  0  0  0  0  0  0  0  0  0  0  0
   -6.4775    5.2478   -1.5601 H   0  0  0  0  0  0  0  0  0  0  0  0
   -5.1278    1.1796    7.0714 H   0  0  0  0  0  0  0  0  0  0  0  0
   -5.6867    2.3563    5.8552 H   0  0  0  0  0  0  0  0  0  0  0  0
   -5.0450    0.8641    4.0325 H   0  0  0  0  0  0  0  0  0  0  0  0
   -4.3601   -0.3091    5.1698 H   0  0  0  0  0  0  0  0  0  0  0  0
   -6.1011   -0.0081    5.1454 H   0  0  0  0  0  0  0  0  0  0  0  0
    0.4135    1.7763    7.4749 H   0  0  0  0  0  0  0  0  0  0  0  0
    0.9240    2.7815    6.0953 H   0  0  0  0  0  0  0  0  0  0  0  0
    0.2431    4.8224    7.2786 H   0  0  0  0  0  0  0  0  0  0  0  0
    1.3795    3.9066    8.2693 H   0  0  0  0  0  0  0  0  0  0  0  0
   -0.3468    3.8727    8.6518 H   0  0  0  0  0  0  0  0  0  0  0  0
    4.3390    9.3555    2.6318 H   0  0  0  0  0  0  0  0  0  0  0  0
   15.1053    4.8684    3.3040 H   0  0  0  0  0  0  0  0  0  0  0  0
   13.5742    2.7551    3.0037 H   0  0  0  0  0  0  0  0  0  0  0  0
   10.1230    9.5164    1.4400 H   0  0  0  0  0  0  0  0  0  0  0  0
   11.6345   11.4223    2.3827 H   0  0  0  0  0  0  0  0  0  0  0  0
    8.1129    2.6334    4.5061 H   0  0  0  0  0  0  0  0  0  0  0  0
    6.5371    0.6367    4.0261 H   0  0  0  0  0  0  0  0  0  0  0  0
    4.4971    1.1492    0.7295 H   0  0  0  0  0  0  0  0  0  0  0  0
    3.8910    0.7950    2.3465 H   0  0  0  0  0  0  0  0  0  0  0  0
    6.1786   -0.7031    0.9723 H   0  0  0  0  0  0  0  0  0  0  0  0
    5.5418   -1.0604    2.5775 H   0  0  0  0  0  0  0  0  0  0  0  0
    4.5260   -1.2926    1.1567 H   0  0  0  0  0  0  0  0  0  0  0  0
   12.5850   11.0362    5.9844 H   0  0  0  0  0  0  0  0  0  0  0  0
   12.9291   12.0433    4.5686 H   0  0  0  0  0  0  0  0  0  0  0  0
   15.0147   11.0187    5.4832 H   0  0  0  0  0  0  0  0  0  0  0  0
   14.6872   10.4184    3.8529 H   0  0  0  0  0  0  0  0  0  0  0  0
   14.3255    9.4066    5.2522 H   0  0  0  0  0  0  0  0  0  0  0  0
   -9.6620   -9.1791    2.0585 H   0  0  0  0  0  0  0  0  0  0  0  0
   -8.0255  -11.0433    1.3287 H   0  0  0  0  0  0  0  0  0  0  0  0
   -3.1856  -12.1733    1.1318 H   0  0  0  0  0  0  0  0  0  0  0  0
   -0.7744  -11.2827    1.4625 H   0  0  0  0  0  0  0  0  0  0  0  0
   -3.1732  -12.9657   -6.0228 H   0  0  0  0  0  0  0  0  0  0  0  0
   -3.7414  -12.8217   -7.7042 H   0  0  0  0  0  0  0  0  0  0  0  0
   -2.1164  -10.7787   -6.1245 H   0  0  0  0  0  0  0  0  0  0  0  0
   -2.7478  -10.4911   -7.7582 H   0  0  0  0  0  0  0  0  0  0  0  0
   -1.5455  -11.7565   -7.4772 H   0  0  0  0  0  0  0  0  0  0  0  0
   -8.6509  -10.2428   -7.5037 H   0  0  0  0  0  0  0  0  0  0  0  0
   -9.0775  -10.2418   -5.7735 H   0  0  0  0  0  0  0  0  0  0  0  0
   -7.4564   -8.0424   -7.1371 H   0  0  0  0  0  0  0  0  0  0  0  0
   -9.1797   -7.9540   -6.7441 H   0  0  0  0  0  0  0  0  0  0  0  0
   -7.9915   -8.0802   -5.4466 H   0  0  0  0  0  0  0  0  0  0  0  0
  -10.4410   -6.8549    2.3046 H   0  0  0  0  0  0  0  0  0  0  0  0
   -7.4960    2.8481   -2.3750 H   0  0  0  0  0  0  0  0  0  0  0  0
   -7.8123   -0.1353    2.8426 H   0  0  0  0  0  0  0  0  0  0  0  0
   -8.5449    0.8169    5.1457 H   0  0  0  0  0  0  0  0  0  0  0  0
   -7.9644   -4.3844   -2.5866 H   0  0  0  0  0  0  0  0  0  0  0  0
   -8.3299   -5.1109   -5.0553 H   0  0  0  0  0  0  0  0  0  0  0  0
  -10.0118   -4.7596   -7.0059 H   0  0  0  0  0  0  0  0  0  0  0  0
  -11.5513   -4.0006   -6.5693 H   0  0  0  0  0  0  0  0  0  0  0  0
  -10.5533   -1.7474   -6.9398 H   0  0  0  0  0  0  0  0  0  0  0  0
  -10.4495   -2.7381   -8.3999 H   0  0  0  0  0  0  0  0  0  0  0  0
   -9.0196   -2.4964   -7.3892 H   0  0  0  0  0  0  0  0  0  0  0  0
  -10.7194    1.3187    6.4970 H   0  0  0  0  0  0  0  0  0  0  0  0
  -12.2373    1.2047    5.5921 H   0  0  0  0  0  0  0  0  0  0  0  0
  -10.8544   -1.1261    7.0067 H   0  0  0  0  0  0  0  0  0  0  0  0
  -12.2982   -0.2816    7.5780 H   0  0  0  0  0  0  0  0  0  0  0  0
  -12.3589   -1.2343    6.0903 H   0  0  0  0  0  0  0  0  0  0  0  0
    4.2971    1.8288   -4.1385 H   0  0  0  0  0  0  0  0  0  0  0  0
    5.5011    3.9802   -3.3736 H   0  0  0  0  0  0  0  0  0  0  0  0
   11.5909    3.6508   -0.3580 H   0  0  0  0  0  0  0  0  0  0  0  0
   13.8863    4.7966    0.0227 H   0  0  0  0  0  0  0  0  0  0  0  0
    8.0527   10.0686    0.2705 H   0  0  0  0  0  0  0  0  0  0  0  0
    7.4029   10.7859   -1.1997 H   0  0  0  0  0  0  0  0  0  0  0  0
    6.2123   11.1196    1.5958 H   0  0  0  0  0  0  0  0  0  0  0  0
    7.1317   12.3350    0.7102 H   0  0  0  0  0  0  0  0  0  0  0  0
    5.5467   11.8292    0.1171 H   0  0  0  0  0  0  0  0  0  0  0  0
    2.5772    6.7121   -0.1359 H   0  0  0  0  0  0  0  0  0  0  0  0
    3.0576    6.2937   -1.7634 H   0  0  0  0  0  0  0  0  0  0  0  0
    2.3112    8.5685   -2.5562 H   0  0  0  0  0  0  0  0  0  0  0  0
    1.8323    8.9759   -0.9074 H   0  0  0  0  0  0  0  0  0  0  0  0
    0.9957    7.6876   -1.7725 H   0  0  0  0  0  0  0  0  0  0  0  0
   13.6178    7.3973    0.2424 H   0  0  0  0  0  0  0  0  0  0  0  0
    3.4705   -0.3155   -4.4248 H   0  0  0  0  0  0  0  0  0  0  0  0
    1.6856  -10.1280    0.8677 H   0  0  0  0  0  0  0  0  0  0  0  0
   -0.4354   -4.0967   -3.2844 H   0  0  0  0  0  0  0  0  0  0  0  0
   -2.3511   -4.9219   -4.8325 H   0  0  0  0  0  0  0  0  0  0  0  0
    6.7758   -4.4168   -1.5476 H   0  0  0  0  0  0  0  0  0  0  0  0
    8.1851   -3.8435    0.5596 H   0  0  0  0  0  0  0  0  0  0  0  0
    6.1872   -3.5737    3.7429 H   0  0  0  0  0  0  0  0  0  0  0  0
    7.8512   -3.4873    3.1406 H   0  0  0  0  0  0  0  0  0  0  0  0
    6.3490   -6.0573    3.8547 H   0  0  0  0  0  0  0  0  0  0  0  0
    7.5977   -5.2921    4.8446 H   0  0  0  0  0  0  0  0  0  0  0  0
    8.0126   -5.9793    3.2701 H   0  0  0  0  0  0  0  0  0  0  0  0
   -2.5899   -6.8296   -6.8351 H   0  0  0  0  0  0  0  0  0  0  0  0
   -1.5088   -8.2241   -6.6698 H   0  0  0  0  0  0  0  0  0  0  0  0
   -3.6983   -7.4552   -4.6734 H   0  0  0  0  0  0  0  0  0  0  0  0
   -3.8239   -8.7467   -5.8708 H   0  0  0  0  0  0  0  0  0  0  0  0
   -2.6522   -8.8702   -4.5532 H   0  0  0  0  0  0  0  0  0  0  0  0
  1  2  2  0  0  0  0
  2  3  1  0  0  0  0
  3  4  2  0  0  0  0
  4  5  1  0  0  0  0
  5  1  1  0  0  0  0
  4  6  1  0  0  0  0
  6  7  1  0  0  0  0
  7  8  1  0  0  0  0
  8  9  2  0  0  0  0
  9 10  1  0  0  0  0
 10  6  2  0  0  0  0
  9 11  1  0  0  0  0
 11 12  1  0  0  0  0
 12 13  1  0  0  0  0
 13 14  1  0  0  0  0
 14 10  1  0  0  0  0
 12 15  2  0  0  0  0
 15 16  1  0  0  0  0
 16 17  1  0  0  0  0
 17 13  2  0  0  0  0
  8 18  1  0  0  0  0
 18 19  2  0  0  0  0
 19 20  1  0  0  0  0
 20106  2  0  0  0  0
106 21  1  0  0  0  0
 21 18  1  0  0  0  0
 11 22  2  0  0  0  0
 14 23  2  0  0  0  0
 15 24  1  0  0  0  0
 24 25  1  0  0  0  0
 17 26  1  0  0  0  0
 26 27  1  0  0  0  0
  1 28  1  0  0  0  0
 28 29  2  0  0  0  0
 29 30  1  0  0  0  0
 30 31  2  0  0  0  0
 31 32  1  0  0  0  0
 32 28  1  0  0  0  0
 30 33  1  0  0  0  0
 33 34  1  0  0  0  0
 34 35  2  0  0  0  0
 35 31  1  0  0  0  0
 34 36  1  0  0  0  0
 36 37  2  0  0  0  0
 37 38  1  0  0  0  0
 38 39  2  0  0  0  0
 39 35  1  0  0  0  0
 37 40  1  0  0  0  0
 40 41  2  0  0  0  0
 41 42  1  0  0  0  0
 42 38  1  0  0  0  0
 40 43  1  0  0  0  0
 43 44  1  0  0  0  0
 44 45  2  0  0  0  0
 45 41  1  0  0  0  0
 36 46  1  0  0  0  0
 39 47  1  0  0  0  0
 46 48  2  0  0  0  0
 48 49  1  0  0  0  0
 49 50  2  0  0  0  0
 50 51  1  0  0  0  0
 51 46  1  0  0  0  0
 47 52  2  0  0  0  0
 52 53  1  0  0  0  0
 53 54  2  0  0  0  0
 54 55  1  0  0  0  0
 55 47  1  0  0  0  0
 54 56  1  0  0  0  0
 56 57  1  0  0  0  0
 50 58  1  0  0  0  0
 58 59  1  0  0  0  0
 60 61  2  0  0  0  0
 61 62  1  0  0  0  0
 62 63  2  0  0  0  0
 63 64  1  0  0  0  0
 64 60  1  0  0  0  0
 63 65  1  0  0  0  0
 65 66  1  0  0  0  0
 66 67  1  0  0  0  0
 67 68  2  0  0  0  0
 68 69  1  0  0  0  0
 69 65  2  0  0  0  0
 68 70  1  0  0  0  0
 70 71  1  0  0  0  0
 71 72  1  0  0  0  0
 72 73  1  0  0  0  0
 73 69  1  0  0  0  0
 71 74  2  0  0  0  0
 74 75  1  0  0  0  0
 75 76  1  0  0  0  0
 76 72  2  0  0  0  0
 67 77  1  0  0  0  0
 77 78  2  0  0  0  0
 78 79  1  0  0  0  0
 79167  2  0  0  0  0
167 80  1  0  0  0  0
 80 77  1  0  0  0  0
 70 81  2  0  0  0  0
 73 82  2  0  0  0  0
 74 83  1  0  0  0  0
 83 84  1  0  0  0  0
 76 85  1  0  0  0  0
 85 86  1  0  0  0  0
 60 87  1  0  0  0  0
 87 88  2  0  0  0  0
 88 89  1  0  0  0  0
 89 90  2  0  0  0  0
 90 91  1  0  0  0  0
 91 87  1  0  0  0  0
 89 92  1  0  0  0  0
 92 93  1  0  0  0  0
 93 94  2  0  0  0  0
 94 90  1  0  0  0  0
 93 95  1  0  0  0  0
 95 96  2  0  0  0  0
 96 97  1  0  0  0  0
 97 98  2  0  0  0  0
 98 94  1  0  0  0  0
 96 99  1  0  0  0  0
 99100  2  0  0  0  0
100101  1  0  0  0  0
101 97  1  0  0  0  0
 99102  1  0  0  0  0
102103  1  0  0  0  0
103104  2  0  0  0  0
104100  1  0  0  0  0
 95105  1  0  0  0  0
103106  1  0  0  0  0
 98107  1  0  0  0  0
105108  2  0  0  0  0
108109  1  0  0  0  0
109110  2  0  0  0  0
110111  1  0  0  0  0
111105  1  0  0  0  0
107112  2  0  0  0  0
112113  1  0  0  0  0
113114  2  0  0  0  0
114115  1  0  0  0  0
115107  1  0  0  0  0
114116  1  0  0  0  0
116117  1  0  0  0  0
110118  1  0  0  0  0
118119  1  0  0  0  0
120121  2  0  0  0  0
121122  1  0  0  0  0
122123  2  0  0  0  0
123124  1  0  0  0  0
124120  1  0  0  0  0
123125  1  0  0  0  0
125126  1  0  0  0  0
126127  1  0  0  0  0
127128  2  0  0  0  0
128129  1  0  0  0  0
129125  2  0  0  0  0
128130  1  0  0  0  0
130131  1  0  0  0  0
131132  1  0  0  0  0
132133  1  0  0  0  0
133129  1  0  0  0  0
131134  2  0  0  0  0
134135  1  0  0  0  0
135136  1  0  0  0  0
136132  2  0  0  0  0
127137  1  0  0  0  0
137138  2  0  0  0  0
138139  1  0  0  0  0
139147  2  0  0  0  0
147140  1  0  0  0  0
140137  1  0  0  0  0
130141  2  0  0  0  0
133142  2  0  0  0  0
134143  1  0  0  0  0
143144  1  0  0  0  0
136145  1  0  0  0  0
145146  1  0  0  0  0
120148  1  0  0  0  0
148149  2  0  0  0  0
149150  1  0  0  0  0
150151  2  0  0  0  0
151152  1  0  0  0  0
152148  1  0  0  0  0
150153  1  0  0  0  0
153154  1  0  0  0  0
154155  2  0  0  0  0
155151  1  0  0  0  0
154156  1  0  0  0  0
156157  2  0  0  0  0
157158  1  0  0  0  0
158159  2  0  0  0  0
159155  1  0  0  0  0
157160  1  0  0  0  0
160161  2  0  0  0  0
161162  1  0  0  0  0
162158  1  0  0  0  0
160163  1  0  0  0  0
163164  1  0  0  0  0
164165  2  0  0  0  0
165161  1  0  0  0  0
156166  1  0  0  0  0
164167  1  0  0  0  0
159168  1  0  0  0  0
166169  2  0  0  0  0
169170  1  0  0  0  0
170171  2  0  0  0  0
171172  1  0  0  0  0
172166  1  0  0  0  0
168173  2  0  0  0  0
173174  1  0  0  0  0
174175  2  0  0  0  0
175176  1  0  0  0  0
176168  1  0  0  0  0
175177  1  0  0  0  0
177178  1  0  0  0  0
171179  1  0  0  0  0
179180  1  0  0  0  0
  2181  1  0  0  0  0
  3182  1  0  0  0  0
 19183  1  0  0  0  0
 20184  1  0  0  0  0
 24185  1  0  0  0  0
 24186  1  0  0  0  0
 25187  1  0  0  0  0
 25188  1  0  0  0  0
 25189  1  0  0  0  0
 26190  1  0  0  0  0
 26191  1  0  0  0  0
 27192  1  0  0  0  0
 27193  1  0  0  0  0
 27194  1  0  0  0  0
 29195  1  0  0  0  0
 44196  1  0  0  0  0
 45197  1  0  0  0  0
 48198  1  0  0  0  0
 49199  1  0  0  0  0
 52200  1  0  0  0  0
 53201  1  0  0  0  0
 56202  1  0  0  0  0
 56203  1  0  0  0  0
 57204  1  0  0  0  0
 57205  1  0  0  0  0
 57206  1  0  0  0  0
 58207  1  0  0  0  0
 58208  1  0  0  0  0
 59209  1  0  0  0  0
 59210  1  0  0  0  0
 59211  1  0  0  0  0
 61212  1  0  0  0  0
 62213  1  0  0  0  0
 78214  1  0  0  0  0
 79215  1  0  0  0  0
 83216  1  0  0  0  0
 83217  1  0  0  0  0
 84218  1  0  0  0  0
 84219  1  0  0  0  0
 84220  1  0  0  0  0
 85221  1  0  0  0  0
 85222  1  0  0  0  0
 86223  1  0  0  0  0
 86224  1  0  0  0  0
 86225  1  0  0  0  0
 88226  1  0  0  0  0
104227  1  0  0  0  0
108228  1  0  0  0  0
109229  1  0  0  0  0
112230  1  0  0  0  0
113231  1  0  0  0  0
116232  1  0  0  0  0
116233  1  0  0  0  0
117234  1  0  0  0  0
117235  1  0  0  0  0
117236  1  0  0  0  0
118237  1  0  0  0  0
118238  1  0  0  0  0
119239  1  0  0  0  0
119240  1  0  0  0  0
119241  1  0  0  0  0
121242  1  0  0  0  0
122243  1  0  0  0  0
138244  1  0  0  0  0
139245  1  0  0  0  0
143246  1  0  0  0  0
143247  1  0  0  0  0
144248  1  0  0  0  0
144249  1  0  0  0  0
144250  1  0  0  0  0
145251  1  0  0  0  0
145252  1  0  0  0  0
146253  1  0  0  0  0
146254  1  0  0  0  0
146255  1  0  0  0  0
147256  1  0  0  0  0
149257  1  0  0  0  0
165258  1  0  0  0  0
169259  1  0  0  0  0
170260  1  0  0  0  0
173261  1  0  0  0  0
174262  1  0  0  0  0
177263  1  0  0  0  0
177264  1  0  0  0  0
178265  1  0  0  0  0
178266  1  0  0  0  0
178267  1  0  0  0  0
179268  1  0  0  0  0
179269  1  0  0  0  0
180270  1  0  0  0  0
180271  1  0  0  0  0
180272  1  0  0  0  0
M  END
