PDBT-Cl.sdf
  xtb     12202112313D
 energy: -501.666862778526 gnorm: 0.000353997692 xtb: 6.4.1 (unknown)
272307  0     0  0            999 V2000
   -1.1604   -4.6177    9.5282 C   0  0  0  0  0  0  0  0  0  0  0  0
   -0.1597   -4.2200   10.3896 C   0  0  0  0  0  0  0  0  0  0  0  0
    0.4612   -3.0289   10.0123 C   0  0  0  0  0  0  0  0  0  0  0  0
   -0.0565   -2.4821    8.8579 C   0  0  0  0  0  0  0  0  0  0  0  0
   -1.3598   -3.4682    8.2449 S   0  0  0  0  0  0  0  0  0  0  0  0
    0.3766   -1.3948    8.0476 C   0  0  0  0  0  0  0  0  0  0  0  0
   -0.1409   -1.4218    6.3909 S   0  0  0  0  0  0  0  0  0  0  0  0
    0.8343   -0.0455    5.9679 C   0  0  0  0  0  0  0  0  0  0  0  0
    1.5329    0.4130    7.0831 C   0  0  0  0  0  0  0  0  0  0  0  0
    1.2238   -0.3213    8.2750 C   0  0  0  0  0  0  0  0  0  0  0  0
    2.5629    1.4563    7.0869 C   0  0  0  0  0  0  0  0  0  0  0  0
    3.0165    1.8605    8.4125 C   0  0  0  0  0  0  0  0  0  0  0  0
    2.5308    1.2685    9.6183 C   0  0  0  0  0  0  0  0  0  0  0  0
    1.6388    0.1114    9.6144 C   0  0  0  0  0  0  0  0  0  0  0  0
    3.8754    2.9108    8.6379 C   0  0  0  0  0  0  0  0  0  0  0  0
    4.0717    3.1847   10.3335 S   0  0  0  0  0  0  0  0  0  0  0  0
    2.9891    1.8989   10.7468 C   0  0  0  0  0  0  0  0  0  0  0  0
    0.7422    0.3680    4.6063 C   0  0  0  0  0  0  0  0  0  0  0  0
    1.3443    1.3860    3.9007 C   0  0  0  0  0  0  0  0  0  0  0  0
    1.0046    1.4066    2.5489 C   0  0  0  0  0  0  0  0  0  0  0  0
   -0.3168   -0.5493    3.5515 S   0  0  0  0  0  0  0  0  0  0  0  0
    3.0356    1.9569    6.0723 O   0  0  0  0  0  0  0  0  0  0  0  0
    1.2394   -0.4088   10.6445 O   0  0  0  0  0  0  0  0  0  0  0  0
    4.5623    3.7652    7.6357 C   0  0  0  0  0  0  0  0  0  0  0  0
    5.2447    4.9821    8.2426 C   0  0  0  0  0  0  0  0  0  0  0  0
    2.6484    1.6476   12.1722 C   0  0  0  0  0  0  0  0  0  0  0  0
    3.4790    0.5136   12.7740 C   0  0  0  0  0  0  0  0  0  0  0  0
   -1.9349   -5.8118    9.5313 C   0  0  0  0  0  0  0  0  0  0  0  0
   -2.0419   -6.7795   10.5037 C   0  0  0  0  0  0  0  0  0  0  0  0
   -2.8548   -7.8395   10.0833 C   0  0  0  0  0  0  0  0  0  0  0  0
   -3.3510   -7.7028    8.7937 C   0  0  0  0  0  0  0  0  0  0  0  0
   -2.8456   -6.2150    8.0900 S   0  0  0  0  0  0  0  0  0  0  0  0
   -3.3931   -9.3106   10.8422 S   0  0  0  0  0  0  0  0  0  0  0  0
   -4.3128   -9.7262    9.4069 C   0  0  0  0  0  0  0  0  0  0  0  0
   -4.1773   -8.7729    8.3689 C   0  0  0  0  0  0  0  0  0  0  0  0
   -5.1271  -10.8452    9.2964 C   0  0  0  0  0  0  0  0  0  0  0  0
   -5.8141  -11.0180    8.0860 C   0  0  0  0  0  0  0  0  0  0  0  0
   -5.6692  -10.0674    7.0430 C   0  0  0  0  0  0  0  0  0  0  0  0
   -4.8519   -8.9504    7.1510 C   0  0  0  0  0  0  0  0  0  0  0  0
   -6.6491  -12.0855    7.6580 C   0  0  0  0  0  0  0  0  0  0  0  0
   -7.1211  -11.9489    6.3628 C   0  0  0  0  0  0  0  0  0  0  0  0
   -6.5697  -10.4896    5.6007 S   0  0  0  0  0  0  0  0  0  0  0  0
   -7.1841  -13.5760    8.3476 S   0  0  0  0  0  0  0  0  0  0  0  0
   -8.0319  -13.9691    6.8946 C   0  0  0  0  0  0  0  0  0  0  0  0
   -7.9198  -13.0233    5.9264 C   0  0  0  0  0  0  0  0  0  0  0  0
   -5.2555  -11.7699   10.4130 C   0  0  0  0  0  0  0  0  0  0  0  0
   -4.6648   -8.0072    6.0608 C   0  0  0  0  0  0  0  0  0  0  0  0
   -4.2586  -12.4269   11.0681 C   0  0  0  0  0  0  0  0  0  0  0  0
   -4.7442  -13.2095   12.1395 C   0  0  0  0  0  0  0  0  0  0  0  0
   -6.0926  -13.1334   12.3275 C   0  0  0  0  0  0  0  0  0  0  0  0
   -6.7987  -12.0821   11.1494 S   0  0  0  0  0  0  0  0  0  0  0  0
   -3.4818   -7.5800    5.5329 C   0  0  0  0  0  0  0  0  0  0  0  0
   -4.9651   -6.3242    4.2426 C   0  0  0  0  0  0  0  0  0  0  0  0
   -6.0105   -7.2394    5.2730 S   0  0  0  0  0  0  0  0  0  0  0  0
   -5.5126   -5.4038    3.2085 C   0  0  0  0  0  0  0  0  0  0  0  0
   -5.8397   -6.1611    1.9191 C   0  0  0  0  0  0  0  0  0  0  0  0
   -6.9402  -13.8603   13.3117 C   0  0  0  0  0  0  0  0  0  0  0  0
   -7.5443  -15.1173   12.6806 C   0  0  0  0  0  0  0  0  0  0  0  0
    0.1216    0.4188    2.1806 C   0  0  0  0  0  0  0  0  0  0  0  0
   -3.6616   -6.6306    4.5036 C   0  0  0  0  0  0  0  0  0  0  0  0
   -2.3380   -5.9059    3.6764 Cl  0  0  0  0  0  0  0  0  0  0  0  0
   -3.7085  -14.1710   13.1217 Cl  0  0  0  0  0  0  0  0  0  0  0  0
   -1.4477   -0.1117  -10.8482 C   0  0  0  0  0  0  0  0  0  0  0  0
   -2.6782    0.0174  -11.4510 C   0  0  0  0  0  0  0  0  0  0  0  0
   -2.7278    1.0198  -12.4326 C   0  0  0  0  0  0  0  0  0  0  0  0
   -1.5398    1.6986  -12.5838 C   0  0  0  0  0  0  0  0  0  0  0  0
   -0.2991    0.9670  -11.5948 S   0  0  0  0  0  0  0  0  0  0  0  0
   -1.2190    3.0038  -13.0752 C   0  0  0  0  0  0  0  0  0  0  0  0
    0.0390    3.7792  -12.1610 S   0  0  0  0  0  0  0  0  0  0  0  0
   -0.2469    5.3275  -12.8951 C   0  0  0  0  0  0  0  0  0  0  0  0
   -1.1923    5.2095  -13.8997 C   0  0  0  0  0  0  0  0  0  0  0  0
   -1.7612    3.8953  -13.9863 C   0  0  0  0  0  0  0  0  0  0  0  0
   -1.6115    6.3207  -14.7577 C   0  0  0  0  0  0  0  0  0  0  0  0
   -2.6033    5.9465  -15.7671 C   0  0  0  0  0  0  0  0  0  0  0  0
   -3.1712    4.6325  -15.8549 C   0  0  0  0  0  0  0  0  0  0  0  0
   -2.8277    3.5512  -14.9298 C   0  0  0  0  0  0  0  0  0  0  0  0
   -3.0549    6.7880  -16.7527 C   0  0  0  0  0  0  0  0  0  0  0  0
   -4.1776    5.9792  -17.7919 S   0  0  0  0  0  0  0  0  0  0  0  0
   -4.0437    4.4986  -16.9056 C   0  0  0  0  0  0  0  0  0  0  0  0
    0.4083    6.3973  -12.2022 C   0  0  0  0  0  0  0  0  0  0  0  0
    0.8367    7.6763  -12.4683 C   0  0  0  0  0  0  0  0  0  0  0  0
    1.4603    8.3021  -11.3721 C   0  0  0  0  0  0  0  0  0  0  0  0
    0.7751    5.9819  -10.5513 S   0  0  0  0  0  0  0  0  0  0  0  0
   -1.1463    7.4460  -14.6558 O   0  0  0  0  0  0  0  0  0  0  0  0
   -3.3753    2.4587  -14.9403 O   0  0  0  0  0  0  0  0  0  0  0  0
   -2.7368    8.2217  -16.9768 C   0  0  0  0  0  0  0  0  0  0  0  0
   -3.6257    9.1150  -16.1065 C   0  0  0  0  0  0  0  0  0  0  0  0
   -4.8535    3.3190  -17.3053 C   0  0  0  0  0  0  0  0  0  0  0  0
   -6.1757    3.2855  -16.5333 C   0  0  0  0  0  0  0  0  0  0  0  0
   -1.0356   -0.6832   -9.6062 C   0  0  0  0  0  0  0  0  0  0  0  0
    0.2468   -0.5899   -9.1141 C   0  0  0  0  0  0  0  0  0  0  0  0
    0.2883   -0.7233   -7.7257 C   0  0  0  0  0  0  0  0  0  0  0  0
   -0.9427   -0.9648   -7.1297 C   0  0  0  0  0  0  0  0  0  0  0  0
   -2.1832   -1.0942   -8.3377 S   0  0  0  0  0  0  0  0  0  0  0  0
    1.5445   -0.3799   -6.5825 S   0  0  0  0  0  0  0  0  0  0  0  0
    0.3882   -0.5119   -5.2747 C   0  0  0  0  0  0  0  0  0  0  0  0
   -0.9080   -0.8895   -5.7107 C   0  0  0  0  0  0  0  0  0  0  0  0
    0.7131   -0.2716   -3.9453 C   0  0  0  0  0  0  0  0  0  0  0  0
   -0.3034   -0.4791   -2.9986 C   0  0  0  0  0  0  0  0  0  0  0  0
   -1.5694   -0.9610   -3.4217 C   0  0  0  0  0  0  0  0  0  0  0  0
   -1.9091   -1.1328   -4.7574 C   0  0  0  0  0  0  0  0  0  0  0  0
   -0.3085   -0.2739   -1.5938 C   0  0  0  0  0  0  0  0  0  0  0  0
   -1.4858   -0.6559   -0.9633 C   0  0  0  0  0  0  0  0  0  0  0  0
   -2.6755   -1.2374   -2.0886 S   0  0  0  0  0  0  0  0  0  0  0  0
    0.7953    0.4053   -0.4597 S   0  0  0  0  0  0  0  0  0  0  0  0
   -0.3181    0.1056    0.8580 C   0  0  0  0  0  0  0  0  0  0  0  0
   -1.4841   -0.4770    0.4274 C   0  0  0  0  0  0  0  0  0  0  0  0
    2.0478    0.1926   -3.6032 C   0  0  0  0  0  0  0  0  0  0  0  0
   -3.2492   -1.5388   -5.1531 C   0  0  0  0  0  0  0  0  0  0  0  0
    2.7418    1.1975   -4.2126 C   0  0  0  0  0  0  0  0  0  0  0  0
    4.0094    1.4113   -3.6293 C   0  0  0  0  0  0  0  0  0  0  0  0
    4.3025    0.5748   -2.5927 C   0  0  0  0  0  0  0  0  0  0  0  0
    2.9994   -0.5330   -2.3415 S   0  0  0  0  0  0  0  0  0  0  0  0
   -4.1168   -0.8810   -5.9702 C   0  0  0  0  0  0  0  0  0  0  0  0
   -5.4154   -2.7466   -5.4365 C   0  0  0  0  0  0  0  0  0  0  0  0
   -3.9454   -3.0195   -4.5645 S   0  0  0  0  0  0  0  0  0  0  0  0
   -6.5553   -3.6984   -5.3325 C   0  0  0  0  0  0  0  0  0  0  0  0
   -7.2998   -3.5186   -4.0076 C   0  0  0  0  0  0  0  0  0  0  0  0
    5.5332    0.5083   -1.7589 C   0  0  0  0  0  0  0  0  0  0  0  0
    6.4849   -0.5798   -2.2605 C   0  0  0  0  0  0  0  0  0  0  0  0
    1.4998    7.5258  -10.2385 C   0  0  0  0  0  0  0  0  0  0  0  0
   -5.3417   -1.5694   -6.1202 C   0  0  0  0  0  0  0  0  0  0  0  0
   -6.6196   -0.9627   -7.0996 Cl  0  0  0  0  0  0  0  0  0  0  0  0
    5.0630    2.6667   -4.1641 Cl  0  0  0  0  0  0  0  0  0  0  0  0
    4.9972    2.7341    1.5685 C   0  0  0  0  0  0  0  0  0  0  0  0
    5.9101    3.1980    2.4925 C   0  0  0  0  0  0  0  0  0  0  0  0
    5.9899    2.3753    3.6104 C   0  0  0  0  0  0  0  0  0  0  0  0
    5.1599    1.2636    3.5601 C   0  0  0  0  0  0  0  0  0  0  0  0
    4.2969    1.2170    2.0569 S   0  0  0  0  0  0  0  0  0  0  0  0
    4.9399    0.3595    4.6280 C   0  0  0  0  0  0  0  0  0  0  0  0
    5.7644    0.6745    6.1277 S   0  0  0  0  0  0  0  0  0  0  0  0
    4.9111   -0.5921    6.9707 C   0  0  0  0  0  0  0  0  0  0  0  0
    4.0794   -1.2738    6.0929 C   0  0  0  0  0  0  0  0  0  0  0  0
    4.1019   -0.7424    4.7646 C   0  0  0  0  0  0  0  0  0  0  0  0
    3.2673   -2.4239    6.4592 C   0  0  0  0  0  0  0  0  0  0  0  0
    2.5480   -3.0417    5.3548 C   0  0  0  0  0  0  0  0  0  0  0  0
    2.5642   -2.5066    4.0288 C   0  0  0  0  0  0  0  0  0  0  0  0
    3.3450   -1.3300    3.6754 C   0  0  0  0  0  0  0  0  0  0  0  0
    1.7493   -4.1553    5.4717 C   0  0  0  0  0  0  0  0  0  0  0  0
    0.9928   -4.5298    3.9655 S   0  0  0  0  0  0  0  0  0  0  0  0
    1.7645   -3.2091    3.1586 C   0  0  0  0  0  0  0  0  0  0  0  0
    5.1887   -0.7387    8.3568 C   0  0  0  0  0  0  0  0  0  0  0  0
    6.0901    0.0503    9.0487 C   0  0  0  0  0  0  0  0  0  0  0  0
    6.2189   -0.2961   10.3948 C   0  0  0  0  0  0  0  0  0  0  0  0
    4.4697   -1.9172    9.4189 S   0  0  0  0  0  0  0  0  0  0  0  0
    3.1763   -2.8463    7.6112 O   0  0  0  0  0  0  0  0  0  0  0  0
    3.3750   -0.8941    2.5238 O   0  0  0  0  0  0  0  0  0  0  0  0
    1.5317   -5.0015    6.6723 C   0  0  0  0  0  0  0  0  0  0  0  0
    0.4228   -6.0268    6.4900 C   0  0  0  0  0  0  0  0  0  0  0  0
    1.5452   -2.9757    1.7076 C   0  0  0  0  0  0  0  0  0  0  0  0
    0.1963   -3.4897    1.2217 C   0  0  0  0  0  0  0  0  0  0  0  0
    4.4914    3.3177    0.3749 C   0  0  0  0  0  0  0  0  0  0  0  0
    3.3447    2.8749   -0.2406 C   0  0  0  0  0  0  0  0  0  0  0  0
    3.0167    3.6424   -1.3518 C   0  0  0  0  0  0  0  0  0  0  0  0
    3.9004    4.6776   -1.6307 C   0  0  0  0  0  0  0  0  0  0  0  0
    5.1768    4.7013   -0.4563 S   0  0  0  0  0  0  0  0  0  0  0  0
    1.7074    3.5280   -2.4743 S   0  0  0  0  0  0  0  0  0  0  0  0
    2.4309    4.8031   -3.4260 C   0  0  0  0  0  0  0  0  0  0  0  0
    3.5840    5.3778   -2.8285 C   0  0  0  0  0  0  0  0  0  0  0  0
    1.9690    5.1477   -4.6872 C   0  0  0  0  0  0  0  0  0  0  0  0
    2.6508    6.1848   -5.3443 C   0  0  0  0  0  0  0  0  0  0  0  0
    3.7940    6.7760   -4.7549 C   0  0  0  0  0  0  0  0  0  0  0  0
    4.2776    6.3958   -3.5061 C   0  0  0  0  0  0  0  0  0  0  0  0
    2.3859    6.7797   -6.6005 C   0  0  0  0  0  0  0  0  0  0  0  0
    3.2993    7.7422   -7.0051 C   0  0  0  0  0  0  0  0  0  0  0  0
    4.5182    8.0048   -5.7847 S   0  0  0  0  0  0  0  0  0  0  0  0
    1.1659    6.5603   -7.7844 S   0  0  0  0  0  0  0  0  0  0  0  0
    1.9920    7.6405   -8.8938 C   0  0  0  0  0  0  0  0  0  0  0  0
    3.0890    8.2268   -8.3118 C   0  0  0  0  0  0  0  0  0  0  0  0
    0.9040    4.3726   -5.3017 C   0  0  0  0  0  0  0  0  0  0  0  0
    5.4477    7.0392   -2.9344 C   0  0  0  0  0  0  0  0  0  0  0  0
   -0.2633    3.9393   -4.7417 C   0  0  0  0  0  0  0  0  0  0  0  0
   -1.0247    3.1448   -5.6266 C   0  0  0  0  0  0  0  0  0  0  0  0
   -0.4531    2.9577   -6.8510 C   0  0  0  0  0  0  0  0  0  0  0  0
    1.0979    3.7119   -6.9017 S   0  0  0  0  0  0  0  0  0  0  0  0
    6.6632    7.2503   -3.5128 C   0  0  0  0  0  0  0  0  0  0  0  0
    7.0229    8.2831   -1.4496 C   0  0  0  0  0  0  0  0  0  0  0  0
    5.3854    7.7357   -1.3426 S   0  0  0  0  0  0  0  0  0  0  0  0
    7.6764    8.9574   -0.2948 C   0  0  0  0  0  0  0  0  0  0  0  0
    7.9795    7.9527    0.8190 C   0  0  0  0  0  0  0  0  0  0  0  0
   -1.0425    2.3662   -8.0800 C   0  0  0  0  0  0  0  0  0  0  0  0
   -1.7668    3.4396   -8.8959 C   0  0  0  0  0  0  0  0  0  0  0  0
    5.4108   -1.3438   10.7287 C   0  0  0  0  0  0  0  0  0  0  0  0
    7.5521    7.9410   -2.6591 C   0  0  0  0  0  0  0  0  0  0  0  0
    9.1663    8.3165   -3.1234 Cl  0  0  0  0  0  0  0  0  0  0  0  0
   -2.5412    2.4597   -5.1869 Cl  0  0  0  0  0  0  0  0  0  0  0  0
    0.1320   -4.7931   11.2507 H   0  0  0  0  0  0  0  0  0  0  0  0
    1.2798   -2.5880   10.5469 H   0  0  0  0  0  0  0  0  0  0  0  0
    2.0309    2.0780    4.3480 H   0  0  0  0  0  0  0  0  0  0  0  0
    1.3843    2.1337    1.8544 H   0  0  0  0  0  0  0  0  0  0  0  0
    5.2960    3.1530    7.1018 H   0  0  0  0  0  0  0  0  0  0  0  0
    3.8260    4.0689    6.8850 H   0  0  0  0  0  0  0  0  0  0  0  0
    5.7180    5.5726    7.4624 H   0  0  0  0  0  0  0  0  0  0  0  0
    6.0074    4.6775    8.9563 H   0  0  0  0  0  0  0  0  0  0  0  0
    4.5220    5.6091    8.7603 H   0  0  0  0  0  0  0  0  0  0  0  0
    2.8094    2.5639   12.7444 H   0  0  0  0  0  0  0  0  0  0  0  0
    1.5940    1.3684   12.2292 H   0  0  0  0  0  0  0  0  0  0  0  0
    4.5416    0.7298   12.6919 H   0  0  0  0  0  0  0  0  0  0  0  0
    3.2617   -0.4118   12.2493 H   0  0  0  0  0  0  0  0  0  0  0  0
    3.2239    0.3883   13.8229 H   0  0  0  0  0  0  0  0  0  0  0  0
   -1.5674   -6.7220   11.4648 H   0  0  0  0  0  0  0  0  0  0  0  0
   -8.5723  -14.8938    6.8499 H   0  0  0  0  0  0  0  0  0  0  0  0
   -8.3747  -13.0857    4.9557 H   0  0  0  0  0  0  0  0  0  0  0  0
   -3.2226  -12.3806   10.7876 H   0  0  0  0  0  0  0  0  0  0  0  0
   -2.5189   -7.9449    5.8393 H   0  0  0  0  0  0  0  0  0  0  0  0
   -6.4176   -4.9262    3.5884 H   0  0  0  0  0  0  0  0  0  0  0  0
   -4.7709   -4.6302    2.9999 H   0  0  0  0  0  0  0  0  0  0  0  0
   -4.9431   -6.6286    1.5194 H   0  0  0  0  0  0  0  0  0  0  0  0
   -6.5782   -6.9354    2.1136 H   0  0  0  0  0  0  0  0  0  0  0  0
   -6.2374   -5.4771    1.1740 H   0  0  0  0  0  0  0  0  0  0  0  0
   -6.3246  -14.1391   14.1691 H   0  0  0  0  0  0  0  0  0  0  0  0
   -7.7429  -13.2059   13.6567 H   0  0  0  0  0  0  0  0  0  0  0  0
   -6.7554  -15.7879   12.3487 H   0  0  0  0  0  0  0  0  0  0  0  0
   -8.1647  -15.6394   13.4042 H   0  0  0  0  0  0  0  0  0  0  0  0
   -8.1554  -14.8503   11.8213 H   0  0  0  0  0  0  0  0  0  0  0  0
   -3.5359   -0.5573  -11.1483 H   0  0  0  0  0  0  0  0  0  0  0  0
   -3.6168    1.2872  -12.9732 H   0  0  0  0  0  0  0  0  0  0  0  0
    0.7010    8.1458  -13.4251 H   0  0  0  0  0  0  0  0  0  0  0  0
    1.8502    9.3039  -11.4128 H   0  0  0  0  0  0  0  0  0  0  0  0
   -2.8853    8.4691  -18.0298 H   0  0  0  0  0  0  0  0  0  0  0  0
   -1.6938    8.3971  -16.7063 H   0  0  0  0  0  0  0  0  0  0  0  0
   -3.4026   10.1605  -16.3008 H   0  0  0  0  0  0  0  0  0  0  0  0
   -4.6771    8.9349  -16.3212 H   0  0  0  0  0  0  0  0  0  0  0  0
   -3.4381    8.9095  -15.0560 H   0  0  0  0  0  0  0  0  0  0  0  0
   -5.0555    3.3601  -18.3776 H   0  0  0  0  0  0  0  0  0  0  0  0
   -4.2915    2.4117  -17.0761 H   0  0  0  0  0  0  0  0  0  0  0  0
   -6.7701    2.4346  -16.8543 H   0  0  0  0  0  0  0  0  0  0  0  0
   -5.9781    3.1894  -15.4691 H   0  0  0  0  0  0  0  0  0  0  0  0
   -6.7444    4.1968  -16.7073 H   0  0  0  0  0  0  0  0  0  0  0  0
    1.0998   -0.3504   -9.7227 H   0  0  0  0  0  0  0  0  0  0  0  0
   -2.2964   -0.7401    1.0795 H   0  0  0  0  0  0  0  0  0  0  0  0
    2.3552    1.7984   -5.0150 H   0  0  0  0  0  0  0  0  0  0  0  0
   -3.9167    0.0749   -6.4169 H   0  0  0  0  0  0  0  0  0  0  0  0
   -6.1831   -4.7229   -5.4015 H   0  0  0  0  0  0  0  0  0  0  0  0
   -7.2372   -3.5194   -6.1659 H   0  0  0  0  0  0  0  0  0  0  0  0
   -7.6904   -2.5069   -3.9291 H   0  0  0  0  0  0  0  0  0  0  0  0
   -6.6274   -3.6962   -3.1713 H   0  0  0  0  0  0  0  0  0  0  0  0
   -8.1291   -4.2183   -3.9453 H   0  0  0  0  0  0  0  0  0  0  0  0
    6.0331    1.4787   -1.7972 H   0  0  0  0  0  0  0  0  0  0  0  0
    5.2558    0.3003   -0.7231 H   0  0  0  0  0  0  0  0  0  0  0  0
    6.7804   -0.3795   -3.2877 H   0  0  0  0  0  0  0  0  0  0  0  0
    5.9983   -1.5516   -2.2217 H   0  0  0  0  0  0  0  0  0  0  0  0
    7.3768   -0.6108   -1.6404 H   0  0  0  0  0  0  0  0  0  0  0  0
    6.4678    4.1103    2.3714 H   0  0  0  0  0  0  0  0  0  0  0  0
    6.6165    2.5822    4.4608 H   0  0  0  0  0  0  0  0  0  0  0  0
    6.6413    0.8456    8.5777 H   0  0  0  0  0  0  0  0  0  0  0  0
    6.8819    0.2029   11.0792 H   0  0  0  0  0  0  0  0  0  0  0  0
    1.3226   -4.3483    7.5234 H   0  0  0  0  0  0  0  0  0  0  0  0
    2.4743   -5.5057    6.9124 H   0  0  0  0  0  0  0  0  0  0  0  0
    0.6630   -6.7102    5.6776 H   0  0  0  0  0  0  0  0  0  0  0  0
   -0.5190   -5.5340    6.2572 H   0  0  0  0  0  0  0  0  0  0  0  0
    0.2953   -6.6051    7.4021 H   0  0  0  0  0  0  0  0  0  0  0  0
    1.6491   -1.9067    1.5091 H   0  0  0  0  0  0  0  0  0  0  0  0
    2.3488   -3.4701    1.1505 H   0  0  0  0  0  0  0  0  0  0  0  0
   -0.6119   -3.0167    1.7758 H   0  0  0  0  0  0  0  0  0  0  0  0
    0.0698   -3.2665    0.1653 H   0  0  0  0  0  0  0  0  0  0  0  0
    0.1216   -4.5668    1.3581 H   0  0  0  0  0  0  0  0  0  0  0  0
    2.7850    2.0248    0.0968 H   0  0  0  0  0  0  0  0  0  0  0  0
    3.7396    8.9193   -8.8128 H   0  0  0  0  0  0  0  0  0  0  0  0
   -0.6021    4.2161   -3.7606 H   0  0  0  0  0  0  0  0  0  0  0  0
    6.9318    6.9018   -4.4928 H   0  0  0  0  0  0  0  0  0  0  0  0
    8.6026    9.4215   -0.6380 H   0  0  0  0  0  0  0  0  0  0  0  0
    7.0194    9.7392    0.0932 H   0  0  0  0  0  0  0  0  0  0  0  0
    8.4538    8.4542    1.6587 H   0  0  0  0  0  0  0  0  0  0  0  0
    8.6467    7.1756    0.4537 H   0  0  0  0  0  0  0  0  0  0  0  0
    7.0594    7.4848    1.1623 H   0  0  0  0  0  0  0  0  0  0  0  0
   -1.7534    1.5885   -7.7979 H   0  0  0  0  0  0  0  0  0  0  0  0
   -0.2527    1.9278   -8.6907 H   0  0  0  0  0  0  0  0  0  0  0  0
   -1.0706    4.2210   -9.1915 H   0  0  0  0  0  0  0  0  0  0  0  0
   -2.5650    3.8872   -8.3090 H   0  0  0  0  0  0  0  0  0  0  0  0
   -2.1986    2.9974   -9.7904 H   0  0  0  0  0  0  0  0  0  0  0  0
    5.3244   -1.8166   11.6874 H   0  0  0  0  0  0  0  0  0  0  0  0
  1  2  2  0  0  0  0
  2  3  1  0  0  0  0
  3  4  2  0  0  0  0
  4  5  1  0  0  0  0
  5  1  1  0  0  0  0
  4  6  1  0  0  0  0
  6  7  1  0  0  0  0
  7  8  1  0  0  0  0
  8  9  2  0  0  0  0
  9 10  1  0  0  0  0
 10  6  2  0  0  0  0
  9 11  1  0  0  0  0
 11 12  1  0  0  0  0
 12 13  1  0  0  0  0
 13 14  1  0  0  0  0
 14 10  1  0  0  0  0
 12 15  2  0  0  0  0
 15 16  1  0  0  0  0
 16 17  1  0  0  0  0
 17 13  2  0  0  0  0
  8 18  1  0  0  0  0
 18 19  2  0  0  0  0
 19 20  1  0  0  0  0
 20 59  2  0  0  0  0
 59 21  1  0  0  0  0
 21 18  1  0  0  0  0
 11 22  2  0  0  0  0
 14 23  2  0  0  0  0
 15 24  1  0  0  0  0
 24 25  1  0  0  0  0
 17 26  1  0  0  0  0
 26 27  1  0  0  0  0
  1 28  1  0  0  0  0
 28 29  2  0  0  0  0
 29 30  1  0  0  0  0
 30 31  2  0  0  0  0
 31 32  1  0  0  0  0
 32 28  1  0  0  0  0
 30 33  1  0  0  0  0
 33 34  1  0  0  0  0
 34 35  2  0  0  0  0
 35 31  1  0  0  0  0
 34 36  1  0  0  0  0
 36 37  2  0  0  0  0
 37 38  1  0  0  0  0
 38 39  2  0  0  0  0
 39 35  1  0  0  0  0
 37 40  1  0  0  0  0
 40 41  2  0  0  0  0
 41 42  1  0  0  0  0
 42 38  1  0  0  0  0
 40 43  1  0  0  0  0
 43 44  1  0  0  0  0
 44 45  2  0  0  0  0
 45 41  1  0  0  0  0
 36 46  1  0  0  0  0
 39 47  1  0  0  0  0
 46 48  2  0  0  0  0
 48 49  1  0  0  0  0
 49 50  2  0  0  0  0
 50 51  1  0  0  0  0
 51 46  1  0  0  0  0
 47 52  2  0  0  0  0
 52 60  1  0  0  0  0
 60 53  2  0  0  0  0
 53 54  1  0  0  0  0
 54 47  1  0  0  0  0
 53 55  1  0  0  0  0
 55 56  1  0  0  0  0
 50 57  1  0  0  0  0
 57 58  1  0  0  0  0
 60 61  1  0  0  0  0
 49 62  1  0  0  0  0
 63 64  2  0  0  0  0
 64 65  1  0  0  0  0
 65 66  2  0  0  0  0
 66 67  1  0  0  0  0
 67 63  1  0  0  0  0
 66 68  1  0  0  0  0
 68 69  1  0  0  0  0
 69 70  1  0  0  0  0
 70 71  2  0  0  0  0
 71 72  1  0  0  0  0
 72 68  2  0  0  0  0
 71 73  1  0  0  0  0
 73 74  1  0  0  0  0
 74 75  1  0  0  0  0
 75 76  1  0  0  0  0
 76 72  1  0  0  0  0
 74 77  2  0  0  0  0
 77 78  1  0  0  0  0
 78 79  1  0  0  0  0
 79 75  2  0  0  0  0
 70 80  1  0  0  0  0
 80 81  2  0  0  0  0
 81 82  1  0  0  0  0
 82121  2  0  0  0  0
121 83  1  0  0  0  0
 83 80  1  0  0  0  0
 73 84  2  0  0  0  0
 76 85  2  0  0  0  0
 77 86  1  0  0  0  0
 86 87  1  0  0  0  0
 79 88  1  0  0  0  0
 88 89  1  0  0  0  0
 63 90  1  0  0  0  0
 90 91  2  0  0  0  0
 91 92  1  0  0  0  0
 92 93  2  0  0  0  0
 93 94  1  0  0  0  0
 94 90  1  0  0  0  0
 92 95  1  0  0  0  0
 95 96  1  0  0  0  0
 96 97  2  0  0  0  0
 97 93  1  0  0  0  0
 96 98  1  0  0  0  0
 98 99  2  0  0  0  0
 99100  1  0  0  0  0
100101  2  0  0  0  0
101 97  1  0  0  0  0
 99102  1  0  0  0  0
102103  2  0  0  0  0
103104  1  0  0  0  0
104100  1  0  0  0  0
102105  1  0  0  0  0
105106  1  0  0  0  0
106107  2  0  0  0  0
107103  1  0  0  0  0
 98108  1  0  0  0  0
101109  1  0  0  0  0
108110  2  0  0  0  0
110111  1  0  0  0  0
111112  2  0  0  0  0
112113  1  0  0  0  0
113108  1  0  0  0  0
109114  2  0  0  0  0
114122  1  0  0  0  0
122115  2  0  0  0  0
115116  1  0  0  0  0
116109  1  0  0  0  0
115117  1  0  0  0  0
117118  1  0  0  0  0
112119  1  0  0  0  0
119120  1  0  0  0  0
122123  1  0  0  0  0
111124  1  0  0  0  0
125126  2  0  0  0  0
126127  1  0  0  0  0
127128  2  0  0  0  0
128129  1  0  0  0  0
129125  1  0  0  0  0
128130  1  0  0  0  0
130131  1  0  0  0  0
131132  1  0  0  0  0
132133  2  0  0  0  0
133134  1  0  0  0  0
134130  2  0  0  0  0
133135  1  0  0  0  0
135136  1  0  0  0  0
136137  1  0  0  0  0
137138  1  0  0  0  0
138134  1  0  0  0  0
136139  2  0  0  0  0
139140  1  0  0  0  0
140141  1  0  0  0  0
141137  2  0  0  0  0
132142  1  0  0  0  0
142143  2  0  0  0  0
143144  1  0  0  0  0
144183  2  0  0  0  0
183145  1  0  0  0  0
145142  1  0  0  0  0
135146  2  0  0  0  0
138147  2  0  0  0  0
139148  1  0  0  0  0
148149  1  0  0  0  0
141150  1  0  0  0  0
150151  1  0  0  0  0
125152  1  0  0  0  0
152153  2  0  0  0  0
153154  1  0  0  0  0
154155  2  0  0  0  0
155156  1  0  0  0  0
156152  1  0  0  0  0
154157  1  0  0  0  0
157158  1  0  0  0  0
158159  2  0  0  0  0
159155  1  0  0  0  0
158160  1  0  0  0  0
160161  2  0  0  0  0
161162  1  0  0  0  0
162163  2  0  0  0  0
163159  1  0  0  0  0
161164  1  0  0  0  0
164165  2  0  0  0  0
165166  1  0  0  0  0
166162  1  0  0  0  0
164167  1  0  0  0  0
167168  1  0  0  0  0
168169  2  0  0  0  0
169165  1  0  0  0  0
160170  1  0  0  0  0
163171  1  0  0  0  0
170172  2  0  0  0  0
172173  1  0  0  0  0
173174  2  0  0  0  0
174175  1  0  0  0  0
175170  1  0  0  0  0
171176  2  0  0  0  0
176184  1  0  0  0  0
184177  2  0  0  0  0
177178  1  0  0  0  0
178171  1  0  0  0  0
177179  1  0  0  0  0
179180  1  0  0  0  0
174181  1  0  0  0  0
181182  1  0  0  0  0
184185  1  0  0  0  0
173186  1  0  0  0  0
 59106  1  0  0  0  0
121168  1  0  0  0  0
  2187  1  0  0  0  0
  3188  1  0  0  0  0
 19189  1  0  0  0  0
 20190  1  0  0  0  0
 24191  1  0  0  0  0
 24192  1  0  0  0  0
 25193  1  0  0  0  0
 25194  1  0  0  0  0
 25195  1  0  0  0  0
 26196  1  0  0  0  0
 26197  1  0  0  0  0
 27198  1  0  0  0  0
 27199  1  0  0  0  0
 27200  1  0  0  0  0
 29201  1  0  0  0  0
 44202  1  0  0  0  0
 45203  1  0  0  0  0
 48204  1  0  0  0  0
 52205  1  0  0  0  0
 55206  1  0  0  0  0
 55207  1  0  0  0  0
 56208  1  0  0  0  0
 56209  1  0  0  0  0
 56210  1  0  0  0  0
 57211  1  0  0  0  0
 57212  1  0  0  0  0
 58213  1  0  0  0  0
 58214  1  0  0  0  0
 58215  1  0  0  0  0
 64216  1  0  0  0  0
 65217  1  0  0  0  0
 81218  1  0  0  0  0
 82219  1  0  0  0  0
 86220  1  0  0  0  0
 86221  1  0  0  0  0
 87222  1  0  0  0  0
 87223  1  0  0  0  0
 87224  1  0  0  0  0
 88225  1  0  0  0  0
 88226  1  0  0  0  0
 89227  1  0  0  0  0
 89228  1  0  0  0  0
 89229  1  0  0  0  0
 91230  1  0  0  0  0
107231  1  0  0  0  0
110232  1  0  0  0  0
114233  1  0  0  0  0
117234  1  0  0  0  0
117235  1  0  0  0  0
118236  1  0  0  0  0
118237  1  0  0  0  0
118238  1  0  0  0  0
119239  1  0  0  0  0
119240  1  0  0  0  0
120241  1  0  0  0  0
120242  1  0  0  0  0
120243  1  0  0  0  0
126244  1  0  0  0  0
127245  1  0  0  0  0
143246  1  0  0  0  0
144247  1  0  0  0  0
148248  1  0  0  0  0
148249  1  0  0  0  0
149250  1  0  0  0  0
149251  1  0  0  0  0
149252  1  0  0  0  0
150253  1  0  0  0  0
150254  1  0  0  0  0
151255  1  0  0  0  0
151256  1  0  0  0  0
151257  1  0  0  0  0
153258  1  0  0  0  0
169259  1  0  0  0  0
172260  1  0  0  0  0
176261  1  0  0  0  0
179262  1  0  0  0  0
179263  1  0  0  0  0
180264  1  0  0  0  0
180265  1  0  0  0  0
180266  1  0  0  0  0
181267  1  0  0  0  0
181268  1  0  0  0  0
182269  1  0  0  0  0
182270  1  0  0  0  0
182271  1  0  0  0  0
183272  1  0  0  0  0
M  END
