PDBT-2F.sdf
  xtb     12202112033D
 energy: -527.978081484345 gnorm: 0.000598194607 xtb: 6.4.1 (unknown)
272307  0     0  0            999 V2000
   10.8492    7.4178   10.2530 C   0  0  0  0  0  0  0  0  0  0  0  0
   10.7663    8.5872    9.5254 C   0  0  0  0  0  0  0  0  0  0  0  0
   10.0305    8.4619    8.3472 C   0  0  0  0  0  0  0  0  0  0  0  0
    9.5282    7.1949    8.1435 C   0  0  0  0  0  0  0  0  0  0  0  0
   10.0028    6.1362    9.4510 S   0  0  0  0  0  0  0  0  0  0  0  0
    8.7627    6.6194    7.0857 C   0  0  0  0  0  0  0  0  0  0  0  0
    8.8487    4.8840    6.9609 S   0  0  0  0  0  0  0  0  0  0  0  0
    7.7382    4.8358    5.6194 C   0  0  0  0  0  0  0  0  0  0  0  0
    7.3419    6.1259    5.2837 C   0  0  0  0  0  0  0  0  0  0  0  0
    7.9194    7.1403    6.1142 C   0  0  0  0  0  0  0  0  0  0  0  0
    6.4236    6.4168    4.1962 C   0  0  0  0  0  0  0  0  0  0  0  0
    6.1333    7.8283    4.0061 C   0  0  0  0  0  0  0  0  0  0  0  0
    6.6613    8.8462    4.8594 C   0  0  0  0  0  0  0  0  0  0  0  0
    7.5572    8.5572    5.9805 C   0  0  0  0  0  0  0  0  0  0  0  0
    5.3281    8.3209    3.0065 C   0  0  0  0  0  0  0  0  0  0  0  0
    5.2233   10.0427    3.1024 S   0  0  0  0  0  0  0  0  0  0  0  0
    6.2568   10.1050    4.4910 C   0  0  0  0  0  0  0  0  0  0  0  0
    7.3906    3.5527    5.1250 C   0  0  0  0  0  0  0  0  0  0  0  0
    7.9362    2.3751    5.6186 C   0  0  0  0  0  0  0  0  0  0  0  0
    7.3938    1.2280    5.0640 C   0  0  0  0  0  0  0  0  0  0  0  0
    6.1881    3.2138    3.9130 S   0  0  0  0  0  0  0  0  0  0  0  0
    5.9260    5.5474    3.4819 O   0  0  0  0  0  0  0  0  0  0  0  0
    7.9533    9.4316    6.7362 O   0  0  0  0  0  0  0  0  0  0  0  0
    4.6149    7.5498    1.9568 C   0  0  0  0  0  0  0  0  0  0  0  0
    3.8816    8.4282    0.9540 C   0  0  0  0  0  0  0  0  0  0  0  0
    6.5483   11.4125    5.1331 C   0  0  0  0  0  0  0  0  0  0  0  0
    5.5906   11.6663    6.3011 C   0  0  0  0  0  0  0  0  0  0  0  0
   11.4870    7.1898   11.5055 C   0  0  0  0  0  0  0  0  0  0  0  0
   12.1057    8.1051   12.3278 C   0  0  0  0  0  0  0  0  0  0  0  0
   12.5943    7.5022   13.4914 C   0  0  0  0  0  0  0  0  0  0  0  0
   12.3514    6.1373   13.5740 C   0  0  0  0  0  0  0  0  0  0  0  0
   11.5170    5.5739   12.1757 S   0  0  0  0  0  0  0  0  0  0  0  0
   13.4691    8.1014   14.8698 S   0  0  0  0  0  0  0  0  0  0  0  0
   13.5327    6.4859   15.5464 C   0  0  0  0  0  0  0  0  0  0  0  0
   12.8648    5.5261   14.7451 C   0  0  0  0  0  0  0  0  0  0  0  0
   14.1515    6.1539   16.7432 C   0  0  0  0  0  0  0  0  0  0  0  0
   14.1445    4.8033   17.1201 C   0  0  0  0  0  0  0  0  0  0  0  0
   13.4661    3.8462   16.3248 C   0  0  0  0  0  0  0  0  0  0  0  0
   12.8011    4.1866   15.1550 C   0  0  0  0  0  0  0  0  0  0  0  0
   14.7552    4.1680   18.2334 C   0  0  0  0  0  0  0  0  0  0  0  0
   14.5324    2.8023   18.2963 C   0  0  0  0  0  0  0  0  0  0  0  0
   13.5489    2.2266   16.9854 S   0  0  0  0  0  0  0  0  0  0  0  0
   15.7770    4.6820   19.5268 S   0  0  0  0  0  0  0  0  0  0  0  0
   15.8694    3.0648   20.1234 C   0  0  0  0  0  0  0  0  0  0  0  0
   15.1655    2.1694   19.3829 C   0  0  0  0  0  0  0  0  0  0  0  0
   14.7629    7.1632   17.5968 C   0  0  0  0  0  0  0  0  0  0  0  0
   12.0512    3.2045   14.3851 C   0  0  0  0  0  0  0  0  0  0  0  0
   14.4439    7.4528   18.8925 C   0  0  0  0  0  0  0  0  0  0  0  0
   15.2199    8.5026   19.4411 C   0  0  0  0  0  0  0  0  0  0  0  0
   16.1390    9.0172   18.5778 C   0  0  0  0  0  0  0  0  0  0  0  0
   16.0404    8.2038   17.0538 S   0  0  0  0  0  0  0  0  0  0  0  0
   10.7260    3.2404   14.0568 C   0  0  0  0  0  0  0  0  0  0  0  0
   11.2971    1.2272   13.0367 C   0  0  0  0  0  0  0  0  0  0  0  0
   12.7801    1.7647   13.7474 S   0  0  0  0  0  0  0  0  0  0  0  0
   11.2016   -0.0652   12.3027 C   0  0  0  0  0  0  0  0  0  0  0  0
   11.3411   -1.2544   13.2548 C   0  0  0  0  0  0  0  0  0  0  0  0
   17.0976   10.1318   18.8174 C   0  0  0  0  0  0  0  0  0  0  0  0
   16.7986   11.3296   17.9153 C   0  0  0  0  0  0  0  0  0  0  0  0
    6.4098    1.5046    4.1335 C   0  0  0  0  0  0  0  0  0  0  0  0
   10.3036    2.1211   13.2989 C   0  0  0  0  0  0  0  0  0  0  0  0
    9.0419    1.9641   12.8737 F   0  0  0  0  0  0  0  0  0  0  0  0
   15.0652    8.9428   20.6985 F   0  0  0  0  0  0  0  0  0  0  0  0
   13.4673    6.8346   19.5679 F   0  0  0  0  0  0  0  0  0  0  0  0
    9.8954    4.2144   14.4481 F   0  0  0  0  0  0  0  0  0  0  0  0
   -1.3827   -8.7791    1.6057 C   0  0  0  0  0  0  0  0  0  0  0  0
   -1.4887  -10.0929    2.0120 C   0  0  0  0  0  0  0  0  0  0  0  0
   -2.7679  -10.6249    1.8490 C   0  0  0  0  0  0  0  0  0  0  0  0
   -3.6684   -9.7295    1.3202 C   0  0  0  0  0  0  0  0  0  0  0  0
   -2.8950   -8.2029    0.9835 S   0  0  0  0  0  0  0  0  0  0  0  0
   -5.0480   -9.8774    0.9788 C   0  0  0  0  0  0  0  0  0  0  0  0
   -5.6189   -8.9993   -0.4036 S   0  0  0  0  0  0  0  0  0  0  0  0
   -7.2404   -9.6048   -0.2173 C   0  0  0  0  0  0  0  0  0  0  0  0
   -7.3285  -10.4416    0.8904 C   0  0  0  0  0  0  0  0  0  0  0  0
   -6.0753  -10.5988    1.5653 C   0  0  0  0  0  0  0  0  0  0  0  0
   -8.5714  -11.0230    1.4134 C   0  0  0  0  0  0  0  0  0  0  0  0
   -8.3925  -11.8770    2.5880 C   0  0  0  0  0  0  0  0  0  0  0  0
   -7.1402  -12.0233    3.2625 C   0  0  0  0  0  0  0  0  0  0  0  0
   -5.9245  -11.3414    2.8242 C   0  0  0  0  0  0  0  0  0  0  0  0
   -9.3930  -12.6285    3.1529 C   0  0  0  0  0  0  0  0  0  0  0  0
   -8.8004  -13.5227    4.5112 S   0  0  0  0  0  0  0  0  0  0  0  0
   -7.2032  -12.8823    4.3312 C   0  0  0  0  0  0  0  0  0  0  0  0
   -8.1757   -9.1759   -1.2053 C   0  0  0  0  0  0  0  0  0  0  0  0
   -9.3967   -9.6790   -1.6012 C   0  0  0  0  0  0  0  0  0  0  0  0
   -9.9661   -8.9867   -2.6680 C   0  0  0  0  0  0  0  0  0  0  0  0
   -7.7308   -7.8097   -2.2023 S   0  0  0  0  0  0  0  0  0  0  0  0
   -9.6753  -10.8089    0.9353 O   0  0  0  0  0  0  0  0  0  0  0  0
   -4.8826  -11.3827    3.4596 O   0  0  0  0  0  0  0  0  0  0  0  0
  -10.8279  -12.7202    2.7791 C   0  0  0  0  0  0  0  0  0  0  0  0
  -11.6244  -11.5754    3.4122 C   0  0  0  0  0  0  0  0  0  0  0  0
   -6.1381  -13.2574    5.2962 C   0  0  0  0  0  0  0  0  0  0  0  0
   -6.0223  -12.2093    6.4070 C   0  0  0  0  0  0  0  0  0  0  0  0
   -0.2543   -7.9165    1.7059 C   0  0  0  0  0  0  0  0  0  0  0  0
    0.9501   -8.1783    2.3201 C   0  0  0  0  0  0  0  0  0  0  0  0
    1.7887   -7.0604    2.3048 C   0  0  0  0  0  0  0  0  0  0  0  0
    1.2523   -5.9492    1.6658 C   0  0  0  0  0  0  0  0  0  0  0  0
   -0.3334   -6.2862    1.0758 S   0  0  0  0  0  0  0  0  0  0  0  0
    3.3418   -6.7354    3.0117 S   0  0  0  0  0  0  0  0  0  0  0  0
    3.2239   -5.0616    2.5133 C   0  0  0  0  0  0  0  0  0  0  0  0
    2.0621   -4.7896    1.7458 C   0  0  0  0  0  0  0  0  0  0  0  0
    4.1359   -4.0744    2.8501 C   0  0  0  0  0  0  0  0  0  0  0  0
    3.8525   -2.7668    2.4314 C   0  0  0  0  0  0  0  0  0  0  0  0
    2.7195   -2.5006    1.6223 C   0  0  0  0  0  0  0  0  0  0  0  0
    1.8333   -3.4987    1.2409 C   0  0  0  0  0  0  0  0  0  0  0  0
    4.5274   -1.5630    2.7454 C   0  0  0  0  0  0  0  0  0  0  0  0
    3.9578   -0.4256    2.1883 C   0  0  0  0  0  0  0  0  0  0  0  0
    2.5707   -0.8028    1.2070 S   0  0  0  0  0  0  0  0  0  0  0  0
    5.8461   -1.1577    3.7781 S   0  0  0  0  0  0  0  0  0  0  0  0
    5.6074    0.5499    3.4541 C   0  0  0  0  0  0  0  0  0  0  0  0
    4.5700    0.7708    2.5772 C   0  0  0  0  0  0  0  0  0  0  0  0
    5.3288   -4.3676    3.6347 C   0  0  0  0  0  0  0  0  0  0  0  0
    0.7164   -3.2513    0.3434 C   0  0  0  0  0  0  0  0  0  0  0  0
    5.4067   -4.8521    4.9079 C   0  0  0  0  0  0  0  0  0  0  0  0
    6.7376   -4.9967    5.3724 C   0  0  0  0  0  0  0  0  0  0  0  0
    7.6823   -4.6453    4.4569 C   0  0  0  0  0  0  0  0  0  0  0  0
    6.9230   -4.1243    2.9935 S   0  0  0  0  0  0  0  0  0  0  0  0
    0.4275   -3.9290   -0.8081 C   0  0  0  0  0  0  0  0  0  0  0  0
   -1.3432   -2.4175   -0.8263 C   0  0  0  0  0  0  0  0  0  0  0  0
   -0.4653   -2.0086    0.6077 S   0  0  0  0  0  0  0  0  0  0  0  0
   -2.5526   -1.6603   -1.2508 C   0  0  0  0  0  0  0  0  0  0  0  0
   -2.1767   -0.2794   -1.7920 C   0  0  0  0  0  0  0  0  0  0  0  0
    9.1609   -4.6029    4.6297 C   0  0  0  0  0  0  0  0  0  0  0  0
    9.6401   -3.1639    4.8347 C   0  0  0  0  0  0  0  0  0  0  0  0
   -9.1928   -7.9382   -3.1233 C   0  0  0  0  0  0  0  0  0  0  0  0
   -0.7302   -3.4522   -1.4660 C   0  0  0  0  0  0  0  0  0  0  0  0
   -1.1809   -3.9797   -2.6153 F   0  0  0  0  0  0  0  0  0  0  0  0
    7.0363   -5.4395    6.6030 F   0  0  0  0  0  0  0  0  0  0  0  0
    4.3361   -5.1181    5.6650 F   0  0  0  0  0  0  0  0  0  0  0  0
    1.1907   -4.9161   -1.2965 F   0  0  0  0  0  0  0  0  0  0  0  0
   -9.2515    0.3466  -13.5369 C   0  0  0  0  0  0  0  0  0  0  0  0
  -10.4022    0.3629  -14.3018 C   0  0  0  0  0  0  0  0  0  0  0  0
  -10.2774    1.1592  -15.4288 C   0  0  0  0  0  0  0  0  0  0  0  0
   -9.0363    1.7692  -15.5559 C   0  0  0  0  0  0  0  0  0  0  0  0
   -8.0022    1.3391  -14.2229 S   0  0  0  0  0  0  0  0  0  0  0  0
   -8.6830    2.6058  -16.6456 C   0  0  0  0  0  0  0  0  0  0  0  0
   -9.8825    2.8251  -17.8937 S   0  0  0  0  0  0  0  0  0  0  0  0
   -8.8423    3.8593  -18.8282 C   0  0  0  0  0  0  0  0  0  0  0  0
   -7.6273    4.0424  -18.1927 C   0  0  0  0  0  0  0  0  0  0  0  0
   -7.5315    3.3215  -16.9594 C   0  0  0  0  0  0  0  0  0  0  0  0
   -6.5804    4.9673  -18.6465 C   0  0  0  0  0  0  0  0  0  0  0  0
   -5.3717    4.9513  -17.8206 C   0  0  0  0  0  0  0  0  0  0  0  0
   -5.2518    4.1645  -16.6309 C   0  0  0  0  0  0  0  0  0  0  0  0
   -6.3402    3.3330  -16.1298 C   0  0  0  0  0  0  0  0  0  0  0  0
   -4.2318    5.6596  -18.1076 C   0  0  0  0  0  0  0  0  0  0  0  0
   -3.0119    5.3748  -16.9127 S   0  0  0  0  0  0  0  0  0  0  0  0
   -4.0303    4.3012  -16.0183 C   0  0  0  0  0  0  0  0  0  0  0  0
   -9.3485    4.3302  -20.0806 C   0  0  0  0  0  0  0  0  0  0  0  0
   -8.6985    4.6275  -21.2515 C   0  0  0  0  0  0  0  0  0  0  0  0
   -9.5725    4.9932  -22.2891 C   0  0  0  0  0  0  0  0  0  0  0  0
  -11.0765    4.4930  -20.2814 S   0  0  0  0  0  0  0  0  0  0  0  0
   -6.7053    5.7060  -19.6104 O   0  0  0  0  0  0  0  0  0  0  0  0
   -6.2435    2.6865  -15.0887 O   0  0  0  0  0  0  0  0  0  0  0  0
   -3.9693    6.6044  -19.2236 C   0  0  0  0  0  0  0  0  0  0  0  0
   -4.5018    8.0003  -18.8870 C   0  0  0  0  0  0  0  0  0  0  0  0
   -3.5141    3.6286  -14.7981 C   0  0  0  0  0  0  0  0  0  0  0  0
   -3.0054    2.2228  -15.1308 C   0  0  0  0  0  0  0  0  0  0  0  0
   -9.0345   -0.3851  -12.3390 C   0  0  0  0  0  0  0  0  0  0  0  0
   -7.9035   -0.4050  -11.5545 C   0  0  0  0  0  0  0  0  0  0  0  0
   -8.0461   -1.2684  -10.4646 C   0  0  0  0  0  0  0  0  0  0  0  0
   -9.2716   -1.9207  -10.4107 C   0  0  0  0  0  0  0  0  0  0  0  0
  -10.2881   -1.4409  -11.7180 S   0  0  0  0  0  0  0  0  0  0  0  0
   -7.0099   -1.7044   -9.1376 S   0  0  0  0  0  0  0  0  0  0  0  0
   -8.2410   -2.7839   -8.5122 C   0  0  0  0  0  0  0  0  0  0  0  0
   -9.4119   -2.8025   -9.3123 C   0  0  0  0  0  0  0  0  0  0  0  0
   -8.1235   -3.5285   -7.3470 C   0  0  0  0  0  0  0  0  0  0  0  0
   -9.2040   -4.3540   -6.9973 C   0  0  0  0  0  0  0  0  0  0  0  0
  -10.3765   -4.3643   -7.7943 C   0  0  0  0  0  0  0  0  0  0  0  0
  -10.5010   -3.6067   -8.9481 C   0  0  0  0  0  0  0  0  0  0  0  0
   -9.3192   -5.3016   -5.9498 C   0  0  0  0  0  0  0  0  0  0  0  0
  -10.5236   -5.9946   -5.9425 C   0  0  0  0  0  0  0  0  0  0  0  0
  -11.5893   -5.4894   -7.2188 S   0  0  0  0  0  0  0  0  0  0  0  0
   -8.2723   -5.8777   -4.7065 S   0  0  0  0  0  0  0  0  0  0  0  0
   -9.4716   -7.0445   -4.1950 C   0  0  0  0  0  0  0  0  0  0  0  0
  -10.6198   -6.9759   -4.9529 C   0  0  0  0  0  0  0  0  0  0  0  0
   -6.9405   -3.4524   -6.5025 C   0  0  0  0  0  0  0  0  0  0  0  0
  -11.6995   -3.6730   -9.7743 C   0  0  0  0  0  0  0  0  0  0  0  0
   -6.8861   -3.1226   -5.1770 C   0  0  0  0  0  0  0  0  0  0  0  0
   -5.5738   -3.1321   -4.6495 C   0  0  0  0  0  0  0  0  0  0  0  0
   -4.6169   -3.4774   -5.5568 C   0  0  0  0  0  0  0  0  0  0  0  0
   -5.3424   -3.7756   -7.0958 S   0  0  0  0  0  0  0  0  0  0  0  0
  -11.8002   -4.1025  -11.0657 C   0  0  0  0  0  0  0  0  0  0  0  0
  -14.0378   -3.5883  -10.6774 C   0  0  0  0  0  0  0  0  0  0  0  0
  -13.2605   -3.2063   -9.1793 S   0  0  0  0  0  0  0  0  0  0  0  0
  -15.5076   -3.4320  -10.8621 C   0  0  0  0  0  0  0  0  0  0  0  0
  -16.2870   -4.3609   -9.9309 C   0  0  0  0  0  0  0  0  0  0  0  0
   -3.1438   -3.5440   -5.3495 C   0  0  0  0  0  0  0  0  0  0  0  0
   -2.5154   -2.1502   -5.4246 C   0  0  0  0  0  0  0  0  0  0  0  0
  -10.8800    4.9707  -21.9139 C   0  0  0  0  0  0  0  0  0  0  0  0
  -13.1227   -4.0557  -11.5709 C   0  0  0  0  0  0  0  0  0  0  0  0
  -13.4395   -4.4333  -12.8189 F   0  0  0  0  0  0  0  0  0  0  0  0
   -5.2962   -2.8294   -3.3708 F   0  0  0  0  0  0  0  0  0  0  0  0
   -7.9629   -2.7787   -4.4578 F   0  0  0  0  0  0  0  0  0  0  0  0
  -10.7613   -4.5628  -11.7738 F   0  0  0  0  0  0  0  0  0  0  0  0
   11.2274    9.5058    9.8390 H   0  0  0  0  0  0  0  0  0  0  0  0
    9.8613    9.2722    7.6650 H   0  0  0  0  0  0  0  0  0  0  0  0
    8.7030    2.3689    6.3738 H   0  0  0  0  0  0  0  0  0  0  0  0
    7.6883    0.2282    5.3318 H   0  0  0  0  0  0  0  0  0  0  0  0
    5.3420    6.9097    1.4471 H   0  0  0  0  0  0  0  0  0  0  0  0
    3.9139    6.8676    2.4490 H   0  0  0  0  0  0  0  0  0  0  0  0
    3.3828    7.8116    0.2110 H   0  0  0  0  0  0  0  0  0  0  0  0
    3.1329    9.0389    1.4545 H   0  0  0  0  0  0  0  0  0  0  0  0
    4.5780    9.0898    0.4428 H   0  0  0  0  0  0  0  0  0  0  0  0
    7.5699   11.3975    5.5174 H   0  0  0  0  0  0  0  0  0  0  0  0
    6.4498   12.2116    4.3957 H   0  0  0  0  0  0  0  0  0  0  0  0
    5.7317   10.9055    7.0640 H   0  0  0  0  0  0  0  0  0  0  0  0
    4.5571   11.6420    5.9618 H   0  0  0  0  0  0  0  0  0  0  0  0
    5.7925   12.6394    6.7401 H   0  0  0  0  0  0  0  0  0  0  0  0
   12.1923    9.1516   12.1053 H   0  0  0  0  0  0  0  0  0  0  0  0
   16.4506    2.8761   21.0041 H   0  0  0  0  0  0  0  0  0  0  0  0
   15.1008    1.1188   19.5957 H   0  0  0  0  0  0  0  0  0  0  0  0
   11.9898   -0.1134   11.5478 H   0  0  0  0  0  0  0  0  0  0  0  0
   10.2344   -0.1041   11.7982 H   0  0  0  0  0  0  0  0  0  0  0  0
   10.5497   -1.2380   14.0004 H   0  0  0  0  0  0  0  0  0  0  0  0
   12.3005   -1.2172   13.7657 H   0  0  0  0  0  0  0  0  0  0  0  0
   11.2755   -2.1861   12.6995 H   0  0  0  0  0  0  0  0  0  0  0  0
   17.0242   10.4255   19.8663 H   0  0  0  0  0  0  0  0  0  0  0  0
   18.1157    9.7829   18.6275 H   0  0  0  0  0  0  0  0  0  0  0  0
   16.8760   11.0415   16.8696 H   0  0  0  0  0  0  0  0  0  0  0  0
   15.7937   11.7017   18.0990 H   0  0  0  0  0  0  0  0  0  0  0  0
   17.5067   12.1301   18.1117 H   0  0  0  0  0  0  0  0  0  0  0  0
   -0.6641  -10.6497    2.4175 H   0  0  0  0  0  0  0  0  0  0  0  0
   -3.0293  -11.6323    2.1103 H   0  0  0  0  0  0  0  0  0  0  0  0
   -9.8629  -10.5198   -1.1259 H   0  0  0  0  0  0  0  0  0  0  0  0
  -10.9134   -9.2482   -3.1025 H   0  0  0  0  0  0  0  0  0  0  0  0
  -10.9168  -12.6471    1.6936 H   0  0  0  0  0  0  0  0  0  0  0  0
  -11.2315  -13.6785    3.1122 H   0  0  0  0  0  0  0  0  0  0  0  0
  -12.6767  -11.6731    3.1601 H   0  0  0  0  0  0  0  0  0  0  0  0
  -11.2629  -10.6238    3.0321 H   0  0  0  0  0  0  0  0  0  0  0  0
  -11.5198  -11.5892    4.4951 H   0  0  0  0  0  0  0  0  0  0  0  0
   -5.1844  -13.3086    4.7673 H   0  0  0  0  0  0  0  0  0  0  0  0
   -6.3653  -14.2327    5.7312 H   0  0  0  0  0  0  0  0  0  0  0  0
   -5.7315  -11.2534    5.9800 H   0  0  0  0  0  0  0  0  0  0  0  0
   -6.9718  -12.0937    6.9256 H   0  0  0  0  0  0  0  0  0  0  0  0
   -5.2654  -12.5134    7.1247 H   0  0  0  0  0  0  0  0  0  0  0  0
    1.2007   -9.1157    2.7787 H   0  0  0  0  0  0  0  0  0  0  0  0
    4.2685    1.7515    2.2593 H   0  0  0  0  0  0  0  0  0  0  0  0
   -3.2245   -1.5414   -0.3988 H   0  0  0  0  0  0  0  0  0  0  0  0
   -3.0734   -2.2334   -2.0192 H   0  0  0  0  0  0  0  0  0  0  0  0
   -3.0719    0.2520   -2.1034 H   0  0  0  0  0  0  0  0  0  0  0  0
   -1.6737    0.3029   -1.0233 H   0  0  0  0  0  0  0  0  0  0  0  0
   -1.5109   -0.3728   -2.6468 H   0  0  0  0  0  0  0  0  0  0  0  0
    9.6448   -5.0237    3.7462 H   0  0  0  0  0  0  0  0  0  0  0  0
    9.4281   -5.2094    5.4972 H   0  0  0  0  0  0  0  0  0  0  0  0
    9.1921   -2.7413    5.7308 H   0  0  0  0  0  0  0  0  0  0  0  0
    9.3594   -2.5491    3.9825 H   0  0  0  0  0  0  0  0  0  0  0  0
   10.7212   -3.1420    4.9424 H   0  0  0  0  0  0  0  0  0  0  0  0
  -11.2900   -0.1886  -14.0455 H   0  0  0  0  0  0  0  0  0  0  0  0
  -11.0634    1.2996  -16.1507 H   0  0  0  0  0  0  0  0  0  0  0  0
   -7.6323    4.5819  -21.3613 H   0  0  0  0  0  0  0  0  0  0  0  0
   -9.2417    5.2628  -23.2759 H   0  0  0  0  0  0  0  0  0  0  0  0
   -4.4800    6.2448  -20.1188 H   0  0  0  0  0  0  0  0  0  0  0  0
   -2.8954    6.6555  -19.4142 H   0  0  0  0  0  0  0  0  0  0  0  0
   -4.0497    8.3723  -17.9699 H   0  0  0  0  0  0  0  0  0  0  0  0
   -4.2718    8.6882  -19.6958 H   0  0  0  0  0  0  0  0  0  0  0  0
   -5.5803    7.9608  -18.7613 H   0  0  0  0  0  0  0  0  0  0  0  0
   -2.7033    4.2216  -14.3705 H   0  0  0  0  0  0  0  0  0  0  0  0
   -4.3237    3.5442  -14.0710 H   0  0  0  0  0  0  0  0  0  0  0  0
   -2.5967    1.7569  -14.2385 H   0  0  0  0  0  0  0  0  0  0  0  0
   -3.8253    1.6104  -15.4961 H   0  0  0  0  0  0  0  0  0  0  0  0
   -2.2284    2.2663  -15.8912 H   0  0  0  0  0  0  0  0  0  0  0  0
   -7.0267    0.1757  -11.7731 H   0  0  0  0  0  0  0  0  0  0  0  0
  -11.4792   -7.6008   -4.8020 H   0  0  0  0  0  0  0  0  0  0  0  0
  -15.7917   -2.3966  -10.6581 H   0  0  0  0  0  0  0  0  0  0  0  0
  -15.7483   -3.6570  -11.9029 H   0  0  0  0  0  0  0  0  0  0  0  0
  -17.3551   -4.2214  -10.0729 H   0  0  0  0  0  0  0  0  0  0  0  0
  -16.0411   -5.3996  -10.1380 H   0  0  0  0  0  0  0  0  0  0  0  0
  -16.0402   -4.1464   -8.8937 H   0  0  0  0  0  0  0  0  0  0  0  0
   -2.9400   -3.9780   -4.3693 H   0  0  0  0  0  0  0  0  0  0  0  0
   -2.7010   -4.1863   -6.1110 H   0  0  0  0  0  0  0  0  0  0  0  0
   -2.9643   -1.4925   -4.6845 H   0  0  0  0  0  0  0  0  0  0  0  0
   -1.4492   -2.2194   -5.2284 H   0  0  0  0  0  0  0  0  0  0  0  0
   -2.6647   -1.7173   -6.4109 H   0  0  0  0  0  0  0  0  0  0  0  0
  -11.7450    5.2134  -22.4989 H   0  0  0  0  0  0  0  0  0  0  0  0
  1  2  2  0  0  0  0
  2  3  1  0  0  0  0
  3  4  2  0  0  0  0
  4  5  1  0  0  0  0
  5  1  1  0  0  0  0
  4  6  1  0  0  0  0
  6  7  1  0  0  0  0
  7  8  1  0  0  0  0
  8  9  2  0  0  0  0
  9 10  1  0  0  0  0
 10  6  2  0  0  0  0
  9 11  1  0  0  0  0
 11 12  1  0  0  0  0
 12 13  1  0  0  0  0
 13 14  1  0  0  0  0
 14 10  1  0  0  0  0
 12 15  2  0  0  0  0
 15 16  1  0  0  0  0
 16 17  1  0  0  0  0
 17 13  2  0  0  0  0
  8 18  1  0  0  0  0
 18 19  2  0  0  0  0
 19 20  1  0  0  0  0
 20 59  2  0  0  0  0
 59 21  1  0  0  0  0
 21 18  1  0  0  0  0
 11 22  2  0  0  0  0
 14 23  2  0  0  0  0
 15 24  1  0  0  0  0
 24 25  1  0  0  0  0
 17 26  1  0  0  0  0
 26 27  1  0  0  0  0
  1 28  1  0  0  0  0
 28 29  2  0  0  0  0
 29 30  1  0  0  0  0
 30 31  2  0  0  0  0
 31 32  1  0  0  0  0
 32 28  1  0  0  0  0
 30 33  1  0  0  0  0
 33 34  1  0  0  0  0
 34 35  2  0  0  0  0
 35 31  1  0  0  0  0
 34 36  1  0  0  0  0
 36 37  2  0  0  0  0
 37 38  1  0  0  0  0
 38 39  2  0  0  0  0
 39 35  1  0  0  0  0
 37 40  1  0  0  0  0
 40 41  2  0  0  0  0
 41 42  1  0  0  0  0
 42 38  1  0  0  0  0
 40 43  1  0  0  0  0
 43 44  1  0  0  0  0
 44 45  2  0  0  0  0
 45 41  1  0  0  0  0
 36 46  1  0  0  0  0
 39 47  1  0  0  0  0
 46 48  2  0  0  0  0
 48 49  1  0  0  0  0
 49 50  2  0  0  0  0
 50 51  1  0  0  0  0
 51 46  1  0  0  0  0
 47 52  2  0  0  0  0
 52 60  1  0  0  0  0
 60 53  2  0  0  0  0
 53 54  1  0  0  0  0
 54 47  1  0  0  0  0
 53 55  1  0  0  0  0
 55 56  1  0  0  0  0
 50 57  1  0  0  0  0
 57 58  1  0  0  0  0
 60 61  1  0  0  0  0
 49 62  1  0  0  0  0
 48 63  1  0  0  0  0
 52 64  1  0  0  0  0
 65 66  2  0  0  0  0
 66 67  1  0  0  0  0
 67 68  2  0  0  0  0
 68 69  1  0  0  0  0
 69 65  1  0  0  0  0
 68 70  1  0  0  0  0
 70 71  1  0  0  0  0
 71 72  1  0  0  0  0
 72 73  2  0  0  0  0
 73 74  1  0  0  0  0
 74 70  2  0  0  0  0
 73 75  1  0  0  0  0
 75 76  1  0  0  0  0
 76 77  1  0  0  0  0
 77 78  1  0  0  0  0
 78 74  1  0  0  0  0
 76 79  2  0  0  0  0
 79 80  1  0  0  0  0
 80 81  1  0  0  0  0
 81 77  2  0  0  0  0
 72 82  1  0  0  0  0
 82 83  2  0  0  0  0
 83 84  1  0  0  0  0
 84123  2  0  0  0  0
123 85  1  0  0  0  0
 85 82  1  0  0  0  0
 75 86  2  0  0  0  0
 78 87  2  0  0  0  0
 79 88  1  0  0  0  0
 88 89  1  0  0  0  0
 81 90  1  0  0  0  0
 90 91  1  0  0  0  0
 65 92  1  0  0  0  0
 92 93  2  0  0  0  0
 93 94  1  0  0  0  0
 94 95  2  0  0  0  0
 95 96  1  0  0  0  0
 96 92  1  0  0  0  0
 94 97  1  0  0  0  0
 97 98  1  0  0  0  0
 98 99  2  0  0  0  0
 99 95  1  0  0  0  0
 98100  1  0  0  0  0
100101  2  0  0  0  0
101102  1  0  0  0  0
102103  2  0  0  0  0
103 99  1  0  0  0  0
101104  1  0  0  0  0
104105  2  0  0  0  0
105106  1  0  0  0  0
106102  1  0  0  0  0
104107  1  0  0  0  0
107108  1  0  0  0  0
108109  2  0  0  0  0
109105  1  0  0  0  0
100110  1  0  0  0  0
103111  1  0  0  0  0
110112  2  0  0  0  0
112113  1  0  0  0  0
113114  2  0  0  0  0
114115  1  0  0  0  0
115110  1  0  0  0  0
111116  2  0  0  0  0
116124  1  0  0  0  0
124117  2  0  0  0  0
117118  1  0  0  0  0
118111  1  0  0  0  0
117119  1  0  0  0  0
119120  1  0  0  0  0
114121  1  0  0  0  0
121122  1  0  0  0  0
124125  1  0  0  0  0
113126  1  0  0  0  0
112127  1  0  0  0  0
116128  1  0  0  0  0
129130  2  0  0  0  0
130131  1  0  0  0  0
131132  2  0  0  0  0
132133  1  0  0  0  0
133129  1  0  0  0  0
132134  1  0  0  0  0
134135  1  0  0  0  0
135136  1  0  0  0  0
136137  2  0  0  0  0
137138  1  0  0  0  0
138134  2  0  0  0  0
137139  1  0  0  0  0
139140  1  0  0  0  0
140141  1  0  0  0  0
141142  1  0  0  0  0
142138  1  0  0  0  0
140143  2  0  0  0  0
143144  1  0  0  0  0
144145  1  0  0  0  0
145141  2  0  0  0  0
136146  1  0  0  0  0
146147  2  0  0  0  0
147148  1  0  0  0  0
148187  2  0  0  0  0
187149  1  0  0  0  0
149146  1  0  0  0  0
139150  2  0  0  0  0
142151  2  0  0  0  0
143152  1  0  0  0  0
152153  1  0  0  0  0
145154  1  0  0  0  0
154155  1  0  0  0  0
129156  1  0  0  0  0
156157  2  0  0  0  0
157158  1  0  0  0  0
158159  2  0  0  0  0
159160  1  0  0  0  0
160156  1  0  0  0  0
158161  1  0  0  0  0
161162  1  0  0  0  0
162163  2  0  0  0  0
163159  1  0  0  0  0
162164  1  0  0  0  0
164165  2  0  0  0  0
165166  1  0  0  0  0
166167  2  0  0  0  0
167163  1  0  0  0  0
165168  1  0  0  0  0
168169  2  0  0  0  0
169170  1  0  0  0  0
170166  1  0  0  0  0
168171  1  0  0  0  0
171172  1  0  0  0  0
172173  2  0  0  0  0
173169  1  0  0  0  0
164174  1  0  0  0  0
167175  1  0  0  0  0
174176  2  0  0  0  0
176177  1  0  0  0  0
177178  2  0  0  0  0
178179  1  0  0  0  0
179174  1  0  0  0  0
175180  2  0  0  0  0
180188  1  0  0  0  0
188181  2  0  0  0  0
181182  1  0  0  0  0
182175  1  0  0  0  0
181183  1  0  0  0  0
183184  1  0  0  0  0
178185  1  0  0  0  0
185186  1  0  0  0  0
188189  1  0  0  0  0
177190  1  0  0  0  0
176191  1  0  0  0  0
180192  1  0  0  0  0
 59108  1  0  0  0  0
123172  1  0  0  0  0
  2193  1  0  0  0  0
  3194  1  0  0  0  0
 19195  1  0  0  0  0
 20196  1  0  0  0  0
 24197  1  0  0  0  0
 24198  1  0  0  0  0
 25199  1  0  0  0  0
 25200  1  0  0  0  0
 25201  1  0  0  0  0
 26202  1  0  0  0  0
 26203  1  0  0  0  0
 27204  1  0  0  0  0
 27205  1  0  0  0  0
 27206  1  0  0  0  0
 29207  1  0  0  0  0
 44208  1  0  0  0  0
 45209  1  0  0  0  0
 55210  1  0  0  0  0
 55211  1  0  0  0  0
 56212  1  0  0  0  0
 56213  1  0  0  0  0
 56214  1  0  0  0  0
 57215  1  0  0  0  0
 57216  1  0  0  0  0
 58217  1  0  0  0  0
 58218  1  0  0  0  0
 58219  1  0  0  0  0
 66220  1  0  0  0  0
 67221  1  0  0  0  0
 83222  1  0  0  0  0
 84223  1  0  0  0  0
 88224  1  0  0  0  0
 88225  1  0  0  0  0
 89226  1  0  0  0  0
 89227  1  0  0  0  0
 89228  1  0  0  0  0
 90229  1  0  0  0  0
 90230  1  0  0  0  0
 91231  1  0  0  0  0
 91232  1  0  0  0  0
 91233  1  0  0  0  0
 93234  1  0  0  0  0
109235  1  0  0  0  0
119236  1  0  0  0  0
119237  1  0  0  0  0
120238  1  0  0  0  0
120239  1  0  0  0  0
120240  1  0  0  0  0
121241  1  0  0  0  0
121242  1  0  0  0  0
122243  1  0  0  0  0
122244  1  0  0  0  0
122245  1  0  0  0  0
130246  1  0  0  0  0
131247  1  0  0  0  0
147248  1  0  0  0  0
148249  1  0  0  0  0
152250  1  0  0  0  0
152251  1  0  0  0  0
153252  1  0  0  0  0
153253  1  0  0  0  0
153254  1  0  0  0  0
154255  1  0  0  0  0
154256  1  0  0  0  0
155257  1  0  0  0  0
155258  1  0  0  0  0
155259  1  0  0  0  0
157260  1  0  0  0  0
173261  1  0  0  0  0
183262  1  0  0  0  0
183263  1  0  0  0  0
184264  1  0  0  0  0
184265  1  0  0  0  0
184266  1  0  0  0  0
185267  1  0  0  0  0
185268  1  0  0  0  0
186269  1  0  0  0  0
186270  1  0  0  0  0
186271  1  0  0  0  0
187272  1  0  0  0  0
M  END
