PDBT-2F.sdf
     RDKit          3D

272307  0  0  0  0  0  0  0  0999 V2000
    6.7167    2.8053    8.7594 C   0  0  0  0  0  0  0  0  0  0  0  0
    6.3329    3.9493    9.4536 C   0  0  0  0  0  0  0  0  0  0  0  0
    6.1626    5.0693    8.6255 C   0  0  0  0  0  0  0  0  0  0  0  0
    6.3790    4.7931    7.2794 C   0  0  0  0  0  0  0  0  0  0  0  0
    6.8355    3.1837    7.1294 S   0  0  0  0  0  0  0  0  0  0  0  0
    6.2662    5.7133    6.1382 C   0  0  0  0  0  0  0  0  0  0  0  0
    7.3286    5.6599    4.8442 S   0  0  0  0  0  0  0  0  0  0  0  0
    6.4907    6.6866    3.8161 C   0  0  0  0  0  0  0  0  0  0  0  0
    5.3278    7.0942    4.4832 C   0  0  0  0  0  0  0  0  0  0  0  0
    5.1872    6.5354    5.7748 C   0  0  0  0  0  0  0  0  0  0  0  0
    4.2972    8.0043    3.9352 C   0  0  0  0  0  0  0  0  0  0  0  0
    3.0574    8.2260    4.7157 C   0  0  0  0  0  0  0  0  0  0  0  0
    2.8869    7.6270    5.9845 C   0  0  0  0  0  0  0  0  0  0  0  0
    3.9272    6.7261    6.5404 C   0  0  0  0  0  0  0  0  0  0  0  0
    1.9661    9.0076    4.3136 C   0  0  0  0  0  0  0  0  0  0  0  0
    0.8211    8.9631    5.5482 S   0  0  0  0  0  0  0  0  0  0  0  0
    1.6704    7.9637    6.5975 C   0  0  0  0  0  0  0  0  0  0  0  0
    6.7546    6.7039    2.3674 C   0  0  0  0  0  0  0  0  0  0  0  0
    8.0133    6.4954    1.8069 C   0  0  0  0  0  0  0  0  0  0  0  0
    7.9742    6.0086    0.4931 C   0  0  0  0  0  0  0  0  0  0  0  0
    5.6062    6.2690    1.2160 S   0  0  0  0  0  0  0  0  0  0  0  0
    4.4963    8.6198    2.8547 O   0  0  0  0  0  0  0  0  0  0  0  0
    3.7213    6.0992    7.6104 O   0  0  0  0  0  0  0  0  0  0  0  0
    1.8303    9.7644    3.0159 C   0  0  0  0  0  0  0  0  0  0  0  0
    0.4466   10.3804    2.8203 C   0  0  0  0  0  0  0  0  0  0  0  0
    1.1077    7.4751    7.9025 C   0  0  0  0  0  0  0  0  0  0  0  0
    0.3960    6.1388    7.7162 C   0  0  0  0  0  0  0  0  0  0  0  0
    6.9348    1.4644    9.3149 C   0  0  0  0  0  0  0  0  0  0  0  0
    6.5397    1.0238   10.5857 C   0  0  0  0  0  0  0  0  0  0  0  0
    6.8386   -0.3252   10.7509 C   0  0  0  0  0  0  0  0  0  0  0  0
    7.4473   -0.9325    9.6935 C   0  0  0  0  0  0  0  0  0  0  0  0
    7.6485    0.1790    8.4531 S   0  0  0  0  0  0  0  0  0  0  0  0
    6.6154   -1.4144   12.0107 S   0  0  0  0  0  0  0  0  0  0  0  0
    7.3547   -2.7045   11.1676 C   0  0  0  0  0  0  0  0  0  0  0  0
    7.7564   -2.2810    9.8838 C   0  0  0  0  0  0  0  0  0  0  0  0
    7.5536   -4.0208   11.6159 C   0  0  0  0  0  0  0  0  0  0  0  0
    8.2411   -4.8917   10.7426 C   0  0  0  0  0  0  0  0  0  0  0  0
    8.6437   -4.4658    9.4597 C   0  0  0  0  0  0  0  0  0  0  0  0
    8.3939   -3.1666    8.9921 C   0  0  0  0  0  0  0  0  0  0  0  0
    8.6503   -6.2109   10.9666 C   0  0  0  0  0  0  0  0  0  0  0  0
    9.3118   -6.7909    9.9256 C   0  0  0  0  0  0  0  0  0  0  0  0
    9.4558   -5.7208    8.6396 S   0  0  0  0  0  0  0  0  0  0  0  0
    8.6111   -7.2835   12.2581 S   0  0  0  0  0  0  0  0  0  0  0  0
    9.4480   -8.5183   11.4362 C   0  0  0  0  0  0  0  0  0  0  0  0
    9.7736   -8.0846   10.1481 C   0  0  0  0  0  0  0  0  0  0  0  0
    7.0040   -4.4707   12.9066 C   0  0  0  0  0  0  0  0  0  0  0  0
    8.7452   -2.7758    7.6191 C   0  0  0  0  0  0  0  0  0  0  0  0
    5.9983   -5.4169   13.0712 C   0  0  0  0  0  0  0  0  0  0  0  0
    5.6123   -5.5932   14.4028 C   0  0  0  0  0  0  0  0  0  0  0  0
    6.3139   -4.7871   15.2925 C   0  0  0  0  0  0  0  0  0  0  0  0
    7.3930   -3.8336   14.4179 S   0  0  0  0  0  0  0  0  0  0  0  0
    7.8467   -2.6028    6.5731 C   0  0  0  0  0  0  0  0  0  0  0  0
    9.8353   -2.0549    5.4890 C   0  0  0  0  0  0  0  0  0  0  0  0
   10.2984   -2.4473    7.0628 S   0  0  0  0  0  0  0  0  0  0  0  0
   10.7660   -1.6617    4.3852 C   0  0  0  0  0  0  0  0  0  0  0  0
   11.1141   -2.8646    3.5149 C   0  0  0  0  0  0  0  0  0  0  0  0
    6.0733   -4.6864   16.7675 C   0  0  0  0  0  0  0  0  0  0  0  0
    4.9427   -3.7073   17.0604 C   0  0  0  0  0  0  0  0  0  0  0  0
    6.6864    5.8357    0.0004 C   0  0  0  0  0  0  0  0  0  0  0  0
    8.4579   -2.2046    5.3800 C   0  0  0  0  0  0  0  0  0  0  0  0
    7.7690   -1.9837    4.2323 F   0  0  0  0  0  0  0  0  0  0  0  0
    4.6302   -6.4479   14.7836 F   0  0  0  0  0  0  0  0  0  0  0  0
    5.4187   -6.0821   12.0404 F   0  0  0  0  0  0  0  0  0  0  0  0
    6.5091   -2.7901    6.6950 F   0  0  0  0  0  0  0  0  0  0  0  0
    0.9468   -4.4839    0.4155 C   0  0  0  0  0  0  0  0  0  0  0  0
    1.2439   -5.3475    1.4691 C   0  0  0  0  0  0  0  0  0  0  0  0
    0.1886   -5.4989    2.3804 C   0  0  0  0  0  0  0  0  0  0  0  0
   -0.9358   -4.7580    2.0388 C   0  0  0  0  0  0  0  0  0  0  0  0
   -0.6237   -3.9207    0.6224 S   0  0  0  0  0  0  0  0  0  0  0  0
   -2.1158   -4.5088    2.8691 C   0  0  0  0  0  0  0  0  0  0  0  0
   -3.6703   -4.7648    2.2922 S   0  0  0  0  0  0  0  0  0  0  0  0
   -4.4708   -3.7830    3.3927 C   0  0  0  0  0  0  0  0  0  0  0  0
   -3.5123   -3.1652    4.2012 C   0  0  0  0  0  0  0  0  0  0  0  0
   -2.1947   -3.5828    3.9192 C   0  0  0  0  0  0  0  0  0  0  0  0
   -3.7732   -2.0525    5.1418 C   0  0  0  0  0  0  0  0  0  0  0  0
   -2.6118   -1.3347    5.7251 C   0  0  0  0  0  0  0  0  0  0  0  0
   -1.2923   -1.7740    5.4726 C   0  0  0  0  0  0  0  0  0  0  0  0
   -1.0411   -2.9411    4.5931 C   0  0  0  0  0  0  0  0  0  0  0  0
   -2.6686   -0.1766    6.5122 C   0  0  0  0  0  0  0  0  0  0  0  0
   -1.0945    0.2874    6.8736 S   0  0  0  0  0  0  0  0  0  0  0  0
   -0.3161   -0.9734    6.0825 C   0  0  0  0  0  0  0  0  0  0  0  0
   -5.8605   -3.3661    3.2064 C   0  0  0  0  0  0  0  0  0  0  0  0
   -6.9530   -3.7951    3.9530 C   0  0  0  0  0  0  0  0  0  0  0  0
   -8.1849   -3.4572    3.3712 C   0  0  0  0  0  0  0  0  0  0  0  0
   -6.4177   -2.5842    1.8315 S   0  0  0  0  0  0  0  0  0  0  0  0
   -4.9547   -1.7251    5.4344 O   0  0  0  0  0  0  0  0  0  0  0  0
    0.1252   -3.3832    4.4228 O   0  0  0  0  0  0  0  0  0  0  0  0
   -3.8739    0.6530    6.8550 C   0  0  0  0  0  0  0  0  0  0  0  0
   -4.2863    1.5211    5.6694 C   0  0  0  0  0  0  0  0  0  0  0  0
    1.1780   -1.0928    5.9877 C   0  0  0  0  0  0  0  0  0  0  0  0
    1.6975   -0.5024    4.6788 C   0  0  0  0  0  0  0  0  0  0  0  0
    1.9069   -3.8879   -0.5277 C   0  0  0  0  0  0  0  0  0  0  0  0
    3.2994   -4.0484   -0.4786 C   0  0  0  0  0  0  0  0  0  0  0  0
    3.9418   -3.0562   -1.2174 C   0  0  0  0  0  0  0  0  0  0  0  0
    3.1249   -2.1484   -1.8346 C   0  0  0  0  0  0  0  0  0  0  0  0
    1.5323   -2.5329   -1.4859 S   0  0  0  0  0  0  0  0  0  0  0  0
    5.5027   -2.4486   -1.1063 S   0  0  0  0  0  0  0  0  0  0  0  0
    5.1051   -0.9632   -1.8407 C   0  0  0  0  0  0  0  0  0  0  0  0
    3.7441   -0.9491   -2.2043 C   0  0  0  0  0  0  0  0  0  0  0  0
    5.8956    0.1973   -1.8675 C   0  0  0  0  0  0  0  0  0  0  0  0
    5.2559    1.3998   -2.2386 C   0  0  0  0  0  0  0  0  0  0  0  0
    3.9018    1.4080   -2.6328 C   0  0  0  0  0  0  0  0  0  0  0  0
    3.1250    0.2362   -2.6577 C   0  0  0  0  0  0  0  0  0  0  0  0
    5.7279    2.7079   -2.0709 C   0  0  0  0  0  0  0  0  0  0  0  0
    4.8043    3.6894   -2.2995 C   0  0  0  0  0  0  0  0  0  0  0  0
    3.3424    3.0140   -2.7732 S   0  0  0  0  0  0  0  0  0  0  0  0
    6.9921    3.3536   -1.1759 S   0  0  0  0  0  0  0  0  0  0  0  0
    6.3233    4.9147   -1.0791 C   0  0  0  0  0  0  0  0  0  0  0  0
    5.0924    4.9334   -1.7468 C   0  0  0  0  0  0  0  0  0  0  0  0
    7.2951    0.1647   -1.4199 C   0  0  0  0  0  0  0  0  0  0  0  0
    1.7135    0.2675   -3.0813 C   0  0  0  0  0  0  0  0  0  0  0  0
    7.7347   -0.0366   -0.1183 C   0  0  0  0  0  0  0  0  0  0  0  0
    9.1266    0.0069    0.0065 C   0  0  0  0  0  0  0  0  0  0  0  0
    9.7833    0.2265   -1.2000 C   0  0  0  0  0  0  0  0  0  0  0  0
    8.6300    0.4034   -2.4157 S   0  0  0  0  0  0  0  0  0  0  0  0
    1.1673   -0.4659   -4.1298 C   0  0  0  0  0  0  0  0  0  0  0  0
   -0.7480    0.6235   -3.3702 C   0  0  0  0  0  0  0  0  0  0  0  0
    0.4844    1.1702   -2.3593 S   0  0  0  0  0  0  0  0  0  0  0  0
   -2.1715    1.0840   -3.3205 C   0  0  0  0  0  0  0  0  0  0  0  0
   -2.4042    2.2241   -4.3061 C   0  0  0  0  0  0  0  0  0  0  0  0
   11.2601    0.3934   -1.3856 C   0  0  0  0  0  0  0  0  0  0  0  0
   11.6377    1.8697   -1.3679 C   0  0  0  0  0  0  0  0  0  0  0  0
   -8.0522   -2.7413    2.1849 C   0  0  0  0  0  0  0  0  0  0  0  0
   -0.2061   -0.2593   -4.2969 C   0  0  0  0  0  0  0  0  0  0  0  0
   -0.9322   -0.8605   -5.2718 F   0  0  0  0  0  0  0  0  0  0  0  0
    9.7685   -0.1302    1.1930 F   0  0  0  0  0  0  0  0  0  0  0  0
    6.9016   -0.2304    0.9335 F   0  0  0  0  0  0  0  0  0  0  0  0
    1.8933   -1.2930   -4.9251 F   0  0  0  0  0  0  0  0  0  0  0  0
   -8.0909   -1.5596  -10.2259 C   0  0  0  0  0  0  0  0  0  0  0  0
   -8.5585   -2.5186  -11.1152 C   0  0  0  0  0  0  0  0  0  0  0  0
   -7.7465   -2.6712  -12.2448 C   0  0  0  0  0  0  0  0  0  0  0  0
   -6.6292   -1.8361  -12.2520 C   0  0  0  0  0  0  0  0  0  0  0  0
   -6.6515   -0.9322  -10.8273 S   0  0  0  0  0  0  0  0  0  0  0  0
   -5.4936   -1.9647  -13.1899 C   0  0  0  0  0  0  0  0  0  0  0  0
   -5.1325   -3.4048  -13.9831 S   0  0  0  0  0  0  0  0  0  0  0  0
   -3.6323   -2.9570  -14.5836 C   0  0  0  0  0  0  0  0  0  0  0  0
   -3.3816   -1.6387  -14.1838 C   0  0  0  0  0  0  0  0  0  0  0  0
   -4.4290   -1.0766  -13.4173 C   0  0  0  0  0  0  0  0  0  0  0  0
   -2.1777   -0.8388  -14.5159 C   0  0  0  0  0  0  0  0  0  0  0  0
   -1.9826    0.4502  -13.8123 C   0  0  0  0  0  0  0  0  0  0  0  0
   -3.0380    1.0254  -13.0743 C   0  0  0  0  0  0  0  0  0  0  0  0
   -4.3463    0.3378  -12.9796 C   0  0  0  0  0  0  0  0  0  0  0  0
   -0.8011    1.2019  -13.7675 C   0  0  0  0  0  0  0  0  0  0  0  0
   -1.0867    2.5724  -12.8341 S   0  0  0  0  0  0  0  0  0  0  0  0
   -2.6985    2.2435  -12.4721 C   0  0  0  0  0  0  0  0  0  0  0  0
   -2.7257   -3.8965  -15.2634 C   0  0  0  0  0  0  0  0  0  0  0  0
   -1.3769   -4.0832  -14.9889 C   0  0  0  0  0  0  0  0  0  0  0  0
   -0.8017   -5.1291  -15.7189 C   0  0  0  0  0  0  0  0  0  0  0  0
   -3.2053   -5.0655  -16.3733 S   0  0  0  0  0  0  0  0  0  0  0  0
   -1.3772   -1.2130  -15.4128 O   0  0  0  0  0  0  0  0  0  0  0  0
   -5.3761    0.9668  -12.6238 O   0  0  0  0  0  0  0  0  0  0  0  0
    0.5203    0.8880  -14.4061 C   0  0  0  0  0  0  0  0  0  0  0  0
    0.5976    1.4684  -15.8122 C   0  0  0  0  0  0  0  0  0  0  0  0
   -3.5315    3.0730  -11.5358 C   0  0  0  0  0  0  0  0  0  0  0  0
   -3.6089    2.4240  -10.1577 C   0  0  0  0  0  0  0  0  0  0  0  0
   -8.6263   -1.2931   -8.8865 C   0  0  0  0  0  0  0  0  0  0  0  0
   -8.4440   -0.1094   -8.1615 C   0  0  0  0  0  0  0  0  0  0  0  0
   -8.9202   -0.2544   -6.8623 C   0  0  0  0  0  0  0  0  0  0  0  0
   -9.4115   -1.4852   -6.5440 C   0  0  0  0  0  0  0  0  0  0  0  0
   -9.3460   -2.4768   -7.8972 S   0  0  0  0  0  0  0  0  0  0  0  0
   -8.8988    0.7406   -5.5087 S   0  0  0  0  0  0  0  0  0  0  0  0
   -9.5087   -0.4714   -4.4710 C   0  0  0  0  0  0  0  0  0  0  0  0
   -9.7389   -1.6606   -5.1948 C   0  0  0  0  0  0  0  0  0  0  0  0
   -9.6888   -0.3987   -3.0752 C   0  0  0  0  0  0  0  0  0  0  0  0
  -10.0522   -1.5968   -2.4232 C   0  0  0  0  0  0  0  0  0  0  0  0
  -10.3162   -2.7741   -3.1521 C   0  0  0  0  0  0  0  0  0  0  0  0
  -10.1560   -2.8409   -4.5447 C   0  0  0  0  0  0  0  0  0  0  0  0
   -9.9925   -1.8676   -1.0504 C   0  0  0  0  0  0  0  0  0  0  0  0
  -10.2334   -3.1698   -0.7066 C   0  0  0  0  0  0  0  0  0  0  0  0
  -10.5102   -4.0893   -2.0861 S   0  0  0  0  0  0  0  0  0  0  0  0
   -9.1083   -1.1431    0.1795 S   0  0  0  0  0  0  0  0  0  0  0  0
   -9.0950   -2.5136    1.1853 C   0  0  0  0  0  0  0  0  0  0  0  0
   -9.7623   -3.5628    0.5432 C   0  0  0  0  0  0  0  0  0  0  0  0
   -9.5744    0.8797   -2.3408 C   0  0  0  0  0  0  0  0  0  0  0  0
  -10.2041   -4.1389   -5.2328 C   0  0  0  0  0  0  0  0  0  0  0  0
  -10.5437    1.4148   -1.4954 C   0  0  0  0  0  0  0  0  0  0  0  0
  -10.1900    2.6530   -0.9503 C   0  0  0  0  0  0  0  0  0  0  0  0
   -8.9365    3.0982   -1.3556 C   0  0  0  0  0  0  0  0  0  0  0  0
   -8.2827    1.9613   -2.4126 S   0  0  0  0  0  0  0  0  0  0  0  0
   -9.1009   -4.8698   -5.6554 C   0  0  0  0  0  0  0  0  0  0  0  0
  -10.8054   -6.3476   -6.2380 C   0  0  0  0  0  0  0  0  0  0  0  0
  -11.5962   -5.0402   -5.5192 S   0  0  0  0  0  0  0  0  0  0  0  0
  -11.4660   -7.6062   -6.7084 C   0  0  0  0  0  0  0  0  0  0  0  0
  -11.5631   -8.6188   -5.5724 C   0  0  0  0  0  0  0  0  0  0  0  0
   -8.3239    4.4222   -1.0203 C   0  0  0  0  0  0  0  0  0  0  0  0
   -8.8268    5.5019   -1.9721 C   0  0  0  0  0  0  0  0  0  0  0  0
   -1.6982   -5.7851  -16.5526 C   0  0  0  0  0  0  0  0  0  0  0  0
   -9.4365   -6.1028   -6.2204 C   0  0  0  0  0  0  0  0  0  0  0  0
   -8.5128   -6.9788   -6.6845 F   0  0  0  0  0  0  0  0  0  0  0  0
  -11.0050    3.3579   -0.1280 F   0  0  0  0  0  0  0  0  0  0  0  0
  -11.7333    0.8123   -1.2445 F   0  0  0  0  0  0  0  0  0  0  0  0
   -7.8210   -4.4392   -5.5150 F   0  0  0  0  0  0  0  0  0  0  0  0
    6.1888    3.9846   10.5269 H   0  0  0  0  0  0  0  0  0  0  0  0
    5.8942    6.0479    9.0041 H   0  0  0  0  0  0  0  0  0  0  0  0
    8.9334    6.5757    2.3701 H   0  0  0  0  0  0  0  0  0  0  0  0
    8.8643    5.6810   -0.0331 H   0  0  0  0  0  0  0  0  0  0  0  0
    2.5898   10.5754    2.9898 H   0  0  0  0  0  0  0  0  0  0  0  0
    2.0233    9.0697    2.1695 H   0  0  0  0  0  0  0  0  0  0  0  0
    0.4037   10.8943    1.8365 H   0  0  0  0  0  0  0  0  0  0  0  0
   -0.3314    9.5872    2.8373 H   0  0  0  0  0  0  0  0  0  0  0  0
    0.2368   11.1252    3.6165 H   0  0  0  0  0  0  0  0  0  0  0  0
    1.9012    7.3895    8.6711 H   0  0  0  0  0  0  0  0  0  0  0  0
    0.3741    8.2205    8.2743 H   0  0  0  0  0  0  0  0  0  0  0  0
    1.1279    5.3345    7.4958 H   0  0  0  0  0  0  0  0  0  0  0  0
   -0.3316    6.2056    6.8806 H   0  0  0  0  0  0  0  0  0  0  0  0
   -0.1579    5.8812    8.6409 H   0  0  0  0  0  0  0  0  0  0  0  0
    6.0505    1.6342   11.3340 H   0  0  0  0  0  0  0  0  0  0  0  0
    9.7042   -9.4833   11.8512 H   0  0  0  0  0  0  0  0  0  0  0  0
   10.3284   -8.6674    9.4257 H   0  0  0  0  0  0  0  0  0  0  0  0
   11.6972   -1.2374    4.8185 H   0  0  0  0  0  0  0  0  0  0  0  0
   10.2887   -0.8770    3.7601 H   0  0  0  0  0  0  0  0  0  0  0  0
   10.1981   -3.3073    3.0723 H   0  0  0  0  0  0  0  0  0  0  0  0
   11.6377   -3.6364    4.1178 H   0  0  0  0  0  0  0  0  0  0  0  0
   11.7860   -2.5422    2.6913 H   0  0  0  0  0  0  0  0  0  0  0  0
    5.8144   -5.6882   17.1748 H   0  0  0  0  0  0  0  0  0  0  0  0
    7.0013   -4.3388   17.2703 H   0  0  0  0  0  0  0  0  0  0  0  0
    5.1915   -2.6995   16.6621 H   0  0  0  0  0  0  0  0  0  0  0  0
    3.9976   -4.0625   16.5962 H   0  0  0  0  0  0  0  0  0  0  0  0
    4.7944   -3.6311   18.1582 H   0  0  0  0  0  0  0  0  0  0  0  0
    2.2098   -5.8107    1.6154 H   0  0  0  0  0  0  0  0  0  0  0  0
    0.2605   -6.0934    3.2844 H   0  0  0  0  0  0  0  0  0  0  0  0
   -6.8630   -4.3852    4.8570 H   0  0  0  0  0  0  0  0  0  0  0  0
   -9.1402   -3.7621    3.7800 H   0  0  0  0  0  0  0  0  0  0  0  0
   -4.7173    0.0061    7.1725 H   0  0  0  0  0  0  0  0  0  0  0  0
   -3.6313    1.3150    7.7138 H   0  0  0  0  0  0  0  0  0  0  0  0
   -5.1776    2.1258    5.9420 H   0  0  0  0  0  0  0  0  0  0  0  0
   -4.5439    0.8901    4.7940 H   0  0  0  0  0  0  0  0  0  0  0  0
   -3.4604    2.2108    5.3927 H   0  0  0  0  0  0  0  0  0  0  0  0
    1.4898   -2.1535    6.0802 H   0  0  0  0  0  0  0  0  0  0  0  0
    1.6434   -0.5429    6.8346 H   0  0  0  0  0  0  0  0  0  0  0  0
    1.2685   -1.0395    3.8073 H   0  0  0  0  0  0  0  0  0  0  0  0
    1.4292    0.5737    4.6111 H   0  0  0  0  0  0  0  0  0  0  0  0
    2.8026   -0.5942    4.6448 H   0  0  0  0  0  0  0  0  0  0  0  0
    3.8178   -4.7297    0.1824 H   0  0  0  0  0  0  0  0  0  0  0  0
    4.3741    5.7407   -1.6792 H   0  0  0  0  0  0  0  0  0  0  0  0
   -2.4166    1.4303   -2.2924 H   0  0  0  0  0  0  0  0  0  0  0  0
   -2.8435    0.2363   -3.5714 H   0  0  0  0  0  0  0  0  0  0  0  0
   -3.4649    2.5453   -4.2568 H   0  0  0  0  0  0  0  0  0  0  0  0
   -1.7574    3.0934   -4.0546 H   0  0  0  0  0  0  0  0  0  0  0  0
   -2.1799    1.8909   -5.3422 H   0  0  0  0  0  0  0  0  0  0  0  0
   11.5608   -0.0538   -2.3563 H   0  0  0  0  0  0  0  0  0  0  0  0
   11.8056   -0.1404   -0.5777 H   0  0  0  0  0  0  0  0  0  0  0  0
   11.3697    2.3190   -0.3880 H   0  0  0  0  0  0  0  0  0  0  0  0
   11.1077    2.4174   -2.1772 H   0  0  0  0  0  0  0  0  0  0  0  0
   12.7326    1.9755   -1.5226 H   0  0  0  0  0  0  0  0  0  0  0  0
   -9.4462   -3.1169  -10.9391 H   0  0  0  0  0  0  0  0  0  0  0  0
   -7.9513   -3.4049  -13.0137 H   0  0  0  0  0  0  0  0  0  0  0  0
   -0.8282   -3.5086  -14.2509 H   0  0  0  0  0  0  0  0  0  0  0  0
    0.2373   -5.4133  -15.6250 H   0  0  0  0  0  0  0  0  0  0  0  0
    0.6924   -0.2079  -14.4327 H   0  0  0  0  0  0  0  0  0  0  0  0
    1.3336    1.3269  -13.7883 H   0  0  0  0  0  0  0  0  0  0  0  0
    0.4684    2.5723  -15.7796 H   0  0  0  0  0  0  0  0  0  0  0  0
    1.5895    1.2381  -16.2545 H   0  0  0  0  0  0  0  0  0  0  0  0
   -0.1914    1.0288  -16.4586 H   0  0  0  0  0  0  0  0  0  0  0  0
   -3.0716    4.0791  -11.4336 H   0  0  0  0  0  0  0  0  0  0  0  0
   -4.5491    3.2191  -11.9501 H   0  0  0  0  0  0  0  0  0  0  0  0
   -4.2091    3.0635   -9.4788 H   0  0  0  0  0  0  0  0  0  0  0  0
   -4.0916    1.4278  -10.2227 H   0  0  0  0  0  0  0  0  0  0  0  0
   -2.5902    2.3084   -9.7298 H   0  0  0  0  0  0  0  0  0  0  0  0
   -7.9532    0.7818   -8.5378 H   0  0  0  0  0  0  0  0  0  0  0  0
   -9.7080   -4.5961    0.8622 H   0  0  0  0  0  0  0  0  0  0  0  0
  -12.4838   -7.3678   -7.0806 H   0  0  0  0  0  0  0  0  0  0  0  0
  -10.8850   -8.0458   -7.5485 H   0  0  0  0  0  0  0  0  0  0  0  0
  -12.0171   -9.5582   -5.9508 H   0  0  0  0  0  0  0  0  0  0  0  0
  -10.5526   -8.8475   -5.1715 H   0  0  0  0  0  0  0  0  0  0  0  0
  -12.2008   -8.2172   -4.7544 H   0  0  0  0  0  0  0  0  0  0  0  0
   -8.5809    4.6999    0.0253 H   0  0  0  0  0  0  0  0  0  0  0  0
   -7.2175    4.3499   -1.0964 H   0  0  0  0  0  0  0  0  0  0  0  0
   -9.9306    5.6001   -1.8993 H   0  0  0  0  0  0  0  0  0  0  0  0
   -8.3652    6.4767   -1.7059 H   0  0  0  0  0  0  0  0  0  0  0  0
   -8.5493    5.2509   -3.0190 H   0  0  0  0  0  0  0  0  0  0  0  0
   -1.4660   -6.6311  -17.1880 H   0  0  0  0  0  0  0  0  0  0  0  0
  1  2  2  0
  2  3  1  0
  3  4  2  0
  4  5  1  0
  5  1  1  0
  4  6  1  0
  6  7  1  0
  7  8  1  0
  8  9  2  0
  9 10  1  0
 10  6  2  0
  9 11  1  0
 11 12  1  0
 12 13  1  0
 13 14  1  0
 14 10  1  0
 12 15  2  0
 15 16  1  0
 16 17  1  0
 17 13  2  0
  8 18  1  0
 18 19  2  0
 19 20  1  0
 20 59  2  0
 59 21  1  0
 21 18  1  0
 11 22  2  0
 14 23  2  0
 15 24  1  0
 24 25  1  0
 17 26  1  0
 26 27  1  0
  1 28  1  0
 28 29  2  0
 29 30  1  0
 30 31  2  0
 31 32  1  0
 32 28  1  0
 30 33  1  0
 33 34  1  0
 34 35  2  0
 35 31  1  0
 34 36  1  0
 36 37  2  0
 37 38  1  0
 38 39  2  0
 39 35  1  0
 37 40  1  0
 40 41  2  0
 41 42  1  0
 42 38  1  0
 40 43  1  0
 43 44  1  0
 44 45  2  0
 45 41  1  0
 36 46  1  0
 39 47  1  0
 46 48  2  0
 48 49  1  0
 49 50  2  0
 50 51  1  0
 51 46  1  0
 47 52  2  0
 52 60  1  0
 60 53  2  0
 53 54  1  0
 54 47  1  0
 53 55  1  0
 55 56  1  0
 50 57  1  0
 57 58  1  0
 60 61  1  0
 49 62  1  0
 48 63  1  0
 52 64  1  0
 65 66  2  0
 66 67  1  0
 67 68  2  0
 68 69  1  0
 69 65  1  0
 68 70  1  0
 70 71  1  0
 71 72  1  0
 72 73  2  0
 73 74  1  0
 74 70  2  0
 73 75  1  0
 75 76  1  0
 76 77  1  0
 77 78  1  0
 78 74  1  0
 76 79  2  0
 79 80  1  0
 80 81  1  0
 81 77  2  0
 72 82  1  0
 82 83  2  0
 83 84  1  0
 84123  2  0
123 85  1  0
 85 82  1  0
 75 86  2  0
 78 87  2  0
 79 88  1  0
 88 89  1  0
 81 90  1  0
 90 91  1  0
 65 92  1  0
 92 93  2  0
 93 94  1  0
 94 95  2  0
 95 96  1  0
 96 92  1  0
 94 97  1  0
 97 98  1  0
 98 99  2  0
 99 95  1  0
 98100  1  0
100101  2  0
101102  1  0
102103  2  0
103 99  1  0
101104  1  0
104105  2  0
105106  1  0
106102  1  0
104107  1  0
107108  1  0
108109  2  0
109105  1  0
100110  1  0
103111  1  0
110112  2  0
112113  1  0
113114  2  0
114115  1  0
115110  1  0
111116  2  0
116124  1  0
124117  2  0
117118  1  0
118111  1  0
117119  1  0
119120  1  0
114121  1  0
121122  1  0
124125  1  0
113126  1  0
112127  1  0
116128  1  0
129130  2  0
130131  1  0
131132  2  0
132133  1  0
133129  1  0
132134  1  0
134135  1  0
135136  1  0
136137  2  0
137138  1  0
138134  2  0
137139  1  0
139140  1  0
140141  1  0
141142  1  0
142138  1  0
140143  2  0
143144  1  0
144145  1  0
145141  2  0
136146  1  0
146147  2  0
147148  1  0
148187  2  0
187149  1  0
149146  1  0
139150  2  0
142151  2  0
143152  1  0
152153  1  0
145154  1  0
154155  1  0
129156  1  0
156157  2  0
157158  1  0
158159  2  0
159160  1  0
160156  1  0
158161  1  0
161162  1  0
162163  2  0
163159  1  0
162164  1  0
164165  2  0
165166  1  0
166167  2  0
167163  1  0
165168  1  0
168169  2  0
169170  1  0
170166  1  0
168171  1  0
171172  1  0
172173  2  0
173169  1  0
164174  1  0
167175  1  0
174176  2  0
176177  1  0
177178  2  0
178179  1  0
179174  1  0
175180  2  0
180188  1  0
188181  2  0
181182  1  0
182175  1  0
181183  1  0
183184  1  0
178185  1  0
185186  1  0
188189  1  0
177190  1  0
176191  1  0
180192  1  0
 59108  1  0
123172  1  0
  2193  1  0
  3194  1  0
 19195  1  0
 20196  1  0
 24197  1  0
 24198  1  0
 25199  1  0
 25200  1  0
 25201  1  0
 26202  1  0
 26203  1  0
 27204  1  0
 27205  1  0
 27206  1  0
 29207  1  0
 44208  1  0
 45209  1  0
 55210  1  0
 55211  1  0
 56212  1  0
 56213  1  0
 56214  1  0
 57215  1  0
 57216  1  0
 58217  1  0
 58218  1  0
 58219  1  0
 66220  1  0
 67221  1  0
 83222  1  0
 84223  1  0
 88224  1  0
 88225  1  0
 89226  1  0
 89227  1  0
 89228  1  0
 90229  1  0
 90230  1  0
 91231  1  0
 91232  1  0
 91233  1  0
 93234  1  0
109235  1  0
119236  1  0
119237  1  0
120238  1  0
120239  1  0
120240  1  0
121241  1  0
121242  1  0
122243  1  0
122244  1  0
122245  1  0
130246  1  0
131247  1  0
147248  1  0
148249  1  0
152250  1  0
152251  1  0
153252  1  0
153253  1  0
153254  1  0
154255  1  0
154256  1  0
155257  1  0
155258  1  0
155259  1  0
157260  1  0
173261  1  0
183262  1  0
183263  1  0
184264  1  0
184265  1  0
184266  1  0
185267  1  0
185268  1  0
186269  1  0
186270  1  0
186271  1  0
187272  1  0
M  END

