PDBT-2Cl.sdf
     RDKit          3D

272307  0  0  0  0  0  0  0  0999 V2000
   -3.3953   -1.8890    6.7504 C   0  0  0  0  0  0  0  0  0  0  0  0
   -2.1593   -1.7405    7.3738 C   0  0  0  0  0  0  0  0  0  0  0  0
   -1.6485   -0.4391    7.2881 C   0  0  0  0  0  0  0  0  0  0  0  0
   -2.4841    0.4401    6.6060 C   0  0  0  0  0  0  0  0  0  0  0  0
   -3.8413   -0.4092    6.0899 S   0  0  0  0  0  0  0  0  0  0  0  0
   -2.1503    1.8123    6.1907 C   0  0  0  0  0  0  0  0  0  0  0  0
   -2.4587    2.4007    4.6466 S   0  0  0  0  0  0  0  0  0  0  0  0
   -1.7271    3.8968    4.8436 C   0  0  0  0  0  0  0  0  0  0  0  0
   -1.2429    3.9806    6.1500 C   0  0  0  0  0  0  0  0  0  0  0  0
   -1.4913    2.8183    6.9125 C   0  0  0  0  0  0  0  0  0  0  0  0
   -0.5883    5.1630    6.7556 C   0  0  0  0  0  0  0  0  0  0  0  0
   -0.1677    5.0861    8.1769 C   0  0  0  0  0  0  0  0  0  0  0  0
   -0.4602    3.9414    8.9554 C   0  0  0  0  0  0  0  0  0  0  0  0
   -1.1837    2.7891    8.3627 C   0  0  0  0  0  0  0  0  0  0  0  0
    0.5192    6.0794    8.8889 C   0  0  0  0  0  0  0  0  0  0  0  0
    0.7323    5.5413   10.4678 S   0  0  0  0  0  0  0  0  0  0  0  0
   -0.0215    4.0496   10.2849 C   0  0  0  0  0  0  0  0  0  0  0  0
   -1.7443    4.9379    3.8157 C   0  0  0  0  0  0  0  0  0  0  0  0
   -2.9018    5.4409    3.2400 C   0  0  0  0  0  0  0  0  0  0  0  0
   -2.6582    6.2545    2.1317 C   0  0  0  0  0  0  0  0  0  0  0  0
   -0.4165    5.4742    2.9209 S   0  0  0  0  0  0  0  0  0  0  0  0
   -0.4006    6.2072    6.0800 O   0  0  0  0  0  0  0  0  0  0  0  0
   -1.5902    1.8443    9.0849 O   0  0  0  0  0  0  0  0  0  0  0  0
    0.9372    7.4424    8.4150 C   0  0  0  0  0  0  0  0  0  0  0  0
   -0.2209    8.4273    8.5149 C   0  0  0  0  0  0  0  0  0  0  0  0
   -0.1241    3.0325   11.3868 C   0  0  0  0  0  0  0  0  0  0  0  0
    0.9155    1.9308   11.2133 C   0  0  0  0  0  0  0  0  0  0  0  0
   -4.1591   -3.1399    6.6167 C   0  0  0  0  0  0  0  0  0  0  0  0
   -3.7117   -4.4172    6.9821 C   0  0  0  0  0  0  0  0  0  0  0  0
   -4.6661   -5.3784    6.6674 C   0  0  0  0  0  0  0  0  0  0  0  0
   -5.8125   -4.9176    6.0949 C   0  0  0  0  0  0  0  0  0  0  0  0
   -5.7111   -3.2494    5.9174 S   0  0  0  0  0  0  0  0  0  0  0  0
   -4.6848   -7.0550    6.7705 S   0  0  0  0  0  0  0  0  0  0  0  0
   -6.2324   -7.1852    6.0605 C   0  0  0  0  0  0  0  0  0  0  0  0
   -6.7334   -5.9073    5.7382 C   0  0  0  0  0  0  0  0  0  0  0  0
   -6.9300   -8.3645    5.7457 C   0  0  0  0  0  0  0  0  0  0  0  0
   -8.1808   -8.2143    5.1121 C   0  0  0  0  0  0  0  0  0  0  0  0
   -8.6833   -6.9352    4.7962 C   0  0  0  0  0  0  0  0  0  0  0  0
   -7.9804   -5.7563    5.1007 C   0  0  0  0  0  0  0  0  0  0  0  0
   -9.0787   -9.2073    4.7107 C   0  0  0  0  0  0  0  0  0  0  0  0
  -10.2110   -8.7434    4.1147 C   0  0  0  0  0  0  0  0  0  0  0  0
  -10.2044   -7.0661    4.0382 S   0  0  0  0  0  0  0  0  0  0  0  0
   -9.1385  -10.8833    4.7966 S   0  0  0  0  0  0  0  0  0  0  0  0
  -10.6592  -10.9966    4.0269 C   0  0  0  0  0  0  0  0  0  0  0  0
  -11.1227   -9.7165    3.7113 C   0  0  0  0  0  0  0  0  0  0  0  0
   -6.3274   -9.6787    6.0014 C   0  0  0  0  0  0  0  0  0  0  0  0
   -8.5355   -4.4420    4.7600 C   0  0  0  0  0  0  0  0  0  0  0  0
   -5.7591  -10.5127    5.0441 C   0  0  0  0  0  0  0  0  0  0  0  0
   -5.1781  -11.6651    5.5935 C   0  0  0  0  0  0  0  0  0  0  0  0
   -5.2917  -11.7298    6.9811 C   0  0  0  0  0  0  0  0  0  0  0  0
   -6.0886  -10.3519    7.5241 S   0  0  0  0  0  0  0  0  0  0  0  0
   -8.5949   -3.8803    3.4868 C   0  0  0  0  0  0  0  0  0  0  0  0
   -9.7292   -2.2449    4.7075 C   0  0  0  0  0  0  0  0  0  0  0  0
   -9.3162   -3.4200    5.8409 S   0  0  0  0  0  0  0  0  0  0  0  0
  -10.4158   -0.9557    5.0359 C   0  0  0  0  0  0  0  0  0  0  0  0
   -9.4036    0.1843    5.1435 C   0  0  0  0  0  0  0  0  0  0  0  0
   -4.7142  -12.7849    7.8752 C   0  0  0  0  0  0  0  0  0  0  0  0
   -3.2350  -12.5130    8.1422 C   0  0  0  0  0  0  0  0  0  0  0  0
   -1.3097    6.3743    1.8120 C   0  0  0  0  0  0  0  0  0  0  0  0
   -9.2536   -2.6400    3.4584 C   0  0  0  0  0  0  0  0  0  0  0  0
   -9.4650   -1.6936    1.9921 Cl  0  0  0  0  0  0  0  0  0  0  0  0
   -4.3559  -12.8813    4.6275 Cl  0  0  0  0  0  0  0  0  0  0  0  0
   -5.7177  -10.1256    3.3320 Cl  0  0  0  0  0  0  0  0  0  0  0  0
   -7.8940   -4.6381    2.0628 Cl  0  0  0  0  0  0  0  0  0  0  0  0
    4.6375    7.2245   -9.6438 C   0  0  0  0  0  0  0  0  0  0  0  0
    5.8444    6.6085   -9.9604 C   0  0  0  0  0  0  0  0  0  0  0  0
    5.7438    5.6938  -11.0161 C   0  0  0  0  0  0  0  0  0  0  0  0
    4.4648    5.6004  -11.5662 C   0  0  0  0  0  0  0  0  0  0  0  0
    3.4731    6.6548  -10.7129 S   0  0  0  0  0  0  0  0  0  0  0  0
    3.9430    4.4113  -12.2699 C   0  0  0  0  0  0  0  0  0  0  0  0
    2.5704    3.6281  -11.7188 S   0  0  0  0  0  0  0  0  0  0  0  0
    2.8676    2.1084  -12.3587 C   0  0  0  0  0  0  0  0  0  0  0  0
    4.0904    2.1862  -13.0543 C   0  0  0  0  0  0  0  0  0  0  0  0
    4.6660    3.4825  -13.0283 C   0  0  0  0  0  0  0  0  0  0  0  0
    4.8527    1.0551  -13.6375 C   0  0  0  0  0  0  0  0  0  0  0  0
    6.1680    1.3311  -14.2747 C   0  0  0  0  0  0  0  0  0  0  0  0
    6.7002    2.6406  -14.3009 C   0  0  0  0  0  0  0  0  0  0  0  0
    5.9457    3.7690  -13.7143 C   0  0  0  0  0  0  0  0  0  0  0  0
    7.0018    0.3863  -14.8887 C   0  0  0  0  0  0  0  0  0  0  0  0
    8.3666    1.1821  -15.4576 S   0  0  0  0  0  0  0  0  0  0  0  0
    7.9432    2.7231  -14.9431 C   0  0  0  0  0  0  0  0  0  0  0  0
    2.1607    0.9268  -11.8231 C   0  0  0  0  0  0  0  0  0  0  0  0
    1.7725   -0.2539  -12.4594 C   0  0  0  0  0  0  0  0  0  0  0  0
    1.0963   -1.1507  -11.6087 C   0  0  0  0  0  0  0  0  0  0  0  0
    1.6164    0.8657  -10.2412 S   0  0  0  0  0  0  0  0  0  0  0  0
    4.4197   -0.1212  -13.5585 O   0  0  0  0  0  0  0  0  0  0  0  0
    6.3539    4.9563  -13.8404 O   0  0  0  0  0  0  0  0  0  0  0  0
    6.7255   -1.0637  -15.1524 C   0  0  0  0  0  0  0  0  0  0  0  0
    5.8058   -1.2209  -16.3609 C   0  0  0  0  0  0  0  0  0  0  0  0
    8.8274    3.9257  -15.1208 C   0  0  0  0  0  0  0  0  0  0  0  0
    9.5957    4.2334  -13.8390 C   0  0  0  0  0  0  0  0  0  0  0  0
    4.3106    7.8645   -8.3553 C   0  0  0  0  0  0  0  0  0  0  0  0
    5.1757    7.9551   -7.2513 C   0  0  0  0  0  0  0  0  0  0  0  0
    4.4645    8.2439   -6.0879 C   0  0  0  0  0  0  0  0  0  0  0  0
    3.1194    8.3877   -6.2374 C   0  0  0  0  0  0  0  0  0  0  0  0
    2.7112    8.1577   -7.8465 S   0  0  0  0  0  0  0  0  0  0  0  0
    4.8603    8.1455   -4.4529 S   0  0  0  0  0  0  0  0  0  0  0  0
    3.2370    8.2602   -3.9325 C   0  0  0  0  0  0  0  0  0  0  0  0
    2.3872    8.3976   -5.0493 C   0  0  0  0  0  0  0  0  0  0  0  0
    2.7346    8.1251   -2.6209 C   0  0  0  0  0  0  0  0  0  0  0  0
    1.3297    8.0757   -2.4870 C   0  0  0  0  0  0  0  0  0  0  0  0
    0.4884    8.2598   -3.6077 C   0  0  0  0  0  0  0  0  0  0  0  0
    0.9915    8.4442   -4.8999 C   0  0  0  0  0  0  0  0  0  0  0  0
    0.5640    7.8016   -1.3471 C   0  0  0  0  0  0  0  0  0  0  0  0
   -0.7824    7.8241   -1.5523 C   0  0  0  0  0  0  0  0  0  0  0  0
   -1.1462    8.1509   -3.1549 S   0  0  0  0  0  0  0  0  0  0  0  0
    0.8714    7.2108    0.2020 S   0  0  0  0  0  0  0  0  0  0  0  0
   -0.7810    7.0223    0.6000 C   0  0  0  0  0  0  0  0  0  0  0  0
   -1.5710    7.4067   -0.4902 C   0  0  0  0  0  0  0  0  0  0  0  0
    3.6334    8.1711   -1.4492 C   0  0  0  0  0  0  0  0  0  0  0  0
    0.0883    8.7206   -6.0303 C   0  0  0  0  0  0  0  0  0  0  0  0
    3.6442    9.1687   -0.4734 C   0  0  0  0  0  0  0  0  0  0  0  0
    4.7037    9.0522    0.4364 C   0  0  0  0  0  0  0  0  0  0  0  0
    5.5509    7.9833    0.1556 C   0  0  0  0  0  0  0  0  0  0  0  0
    4.9633    7.1704   -1.1915 S   0  0  0  0  0  0  0  0  0  0  0  0
   -0.0403    9.9388   -6.6895 C   0  0  0  0  0  0  0  0  0  0  0  0
   -1.7020    8.7109   -7.7739 C   0  0  0  0  0  0  0  0  0  0  0  0
   -1.0400    7.6398   -6.6536 S   0  0  0  0  0  0  0  0  0  0  0  0
   -2.8322    8.3793   -8.7015 C   0  0  0  0  0  0  0  0  0  0  0  0
   -2.3151    8.0940  -10.1082 C   0  0  0  0  0  0  0  0  0  0  0  0
    6.8095    7.6233    0.8888 C   0  0  0  0  0  0  0  0  0  0  0  0
    6.5130    6.6832    2.0535 C   0  0  0  0  0  0  0  0  0  0  0  0
    0.9216   -0.6566  -10.3159 C   0  0  0  0  0  0  0  0  0  0  0  0
   -1.0416    9.9318   -7.6710 C   0  0  0  0  0  0  0  0  0  0  0  0
   -1.4332   11.3385   -8.6529 Cl  0  0  0  0  0  0  0  0  0  0  0  0
    4.9687   10.1783    1.7609 Cl  0  0  0  0  0  0  0  0  0  0  0  0
    2.4930   10.5013   -0.4370 Cl  0  0  0  0  0  0  0  0  0  0  0  0
    0.9204   11.3579   -6.2982 Cl  0  0  0  0  0  0  0  0  0  0  0  0
    0.4452   -4.6116    2.0732 C   0  0  0  0  0  0  0  0  0  0  0  0
    0.5728   -5.9724    2.3393 C   0  0  0  0  0  0  0  0  0  0  0  0
    1.2036   -6.2443    3.5616 C   0  0  0  0  0  0  0  0  0  0  0  0
    1.5710   -5.0954    4.2597 C   0  0  0  0  0  0  0  0  0  0  0  0
    1.1274   -3.7541    3.3492 S   0  0  0  0  0  0  0  0  0  0  0  0
    2.4119   -5.0503    5.4648 C   0  0  0  0  0  0  0  0  0  0  0  0
    3.8254   -4.1436    5.5840 S   0  0  0  0  0  0  0  0  0  0  0  0
    4.3109   -4.7137    7.0833 C   0  0  0  0  0  0  0  0  0  0  0  0
    3.3421   -5.6163    7.5491 C   0  0  0  0  0  0  0  0  0  0  0  0
    2.2795   -5.8054    6.6380 C   0  0  0  0  0  0  0  0  0  0  0  0
    3.3159   -6.2567    8.8851 C   0  0  0  0  0  0  0  0  0  0  0  0
    2.2139   -7.2015    9.1938 C   0  0  0  0  0  0  0  0  0  0  0  0
    1.1471   -7.3858    8.2886 C   0  0  0  0  0  0  0  0  0  0  0  0
    1.1190   -6.6555    6.9979 C   0  0  0  0  0  0  0  0  0  0  0  0
    2.0875   -7.9624   10.3657 C   0  0  0  0  0  0  0  0  0  0  0  0
    0.6566   -8.8347   10.2706 S   0  0  0  0  0  0  0  0  0  0  0  0
    0.1692   -8.2765    8.7603 C   0  0  0  0  0  0  0  0  0  0  0  0
    5.5840   -4.3356    7.7162 C   0  0  0  0  0  0  0  0  0  0  0  0
    6.5043   -5.1970    8.3071 C   0  0  0  0  0  0  0  0  0  0  0  0
    7.6640   -4.5459    8.7505 C   0  0  0  0  0  0  0  0  0  0  0  0
    6.2433   -2.7843    7.7020 S   0  0  0  0  0  0  0  0  0  0  0  0
    4.1711   -5.9611    9.7615 O   0  0  0  0  0  0  0  0  0  0  0  0
    0.1102   -6.7123    6.2510 O   0  0  0  0  0  0  0  0  0  0  0  0
    2.9891   -8.0006   11.5664 C   0  0  0  0  0  0  0  0  0  0  0  0
    2.6885   -6.8475   12.5185 C   0  0  0  0  0  0  0  0  0  0  0  0
   -1.0689   -8.7598    8.0623 C   0  0  0  0  0  0  0  0  0  0  0  0
   -0.7312   -9.8524    7.0545 C   0  0  0  0  0  0  0  0  0  0  0  0
   -0.0776   -4.0150    0.8321 C   0  0  0  0  0  0  0  0  0  0  0  0
   -0.1948   -2.6382    0.6026 C   0  0  0  0  0  0  0  0  0  0  0  0
   -0.5299   -2.3841   -0.7202 C   0  0  0  0  0  0  0  0  0  0  0  0
   -0.6820   -3.4802   -1.5219 C   0  0  0  0  0  0  0  0  0  0  0  0
   -0.3934   -4.8677   -0.6171 S   0  0  0  0  0  0  0  0  0  0  0  0
   -0.5144   -0.9743   -1.6281 S   0  0  0  0  0  0  0  0  0  0  0  0
   -0.6914   -1.8031   -3.1066 C   0  0  0  0  0  0  0  0  0  0  0  0
   -0.7796   -3.1925   -2.8907 C   0  0  0  0  0  0  0  0  0  0  0  0
   -0.6021   -1.2465   -4.3897 C   0  0  0  0  0  0  0  0  0  0  0  0
   -0.5745   -2.1469   -5.4729 C   0  0  0  0  0  0  0  0  0  0  0  0
   -0.7012   -3.5362   -5.2691 C   0  0  0  0  0  0  0  0  0  0  0  0
   -0.8310   -4.0910   -3.9772 C   0  0  0  0  0  0  0  0  0  0  0  0
   -0.3763   -1.8655   -6.8229 C   0  0  0  0  0  0  0  0  0  0  0  0
   -0.3240   -2.9482   -7.6515 C   0  0  0  0  0  0  0  0  0  0  0  0
   -0.5544   -4.3601   -6.7615 S   0  0  0  0  0  0  0  0  0  0  0  0
    0.0279   -0.4924   -7.6841 S   0  0  0  0  0  0  0  0  0  0  0  0
    0.3013   -1.3117   -9.1504 C   0  0  0  0  0  0  0  0  0  0  0  0
    0.0494   -2.6836   -8.9746 C   0  0  0  0  0  0  0  0  0  0  0  0
   -0.4739    0.2129   -4.5569 C   0  0  0  0  0  0  0  0  0  0  0  0
   -1.1159   -5.5224   -3.7885 C   0  0  0  0  0  0  0  0  0  0  0  0
   -1.5084    1.1399   -4.4509 C   0  0  0  0  0  0  0  0  0  0  0  0
   -1.0738    2.4692   -4.5793 C   0  0  0  0  0  0  0  0  0  0  0  0
    0.3036    2.5820   -4.7679 C   0  0  0  0  0  0  0  0  0  0  0  0
    0.9764    1.0399   -4.7735 S   0  0  0  0  0  0  0  0  0  0  0  0
   -0.2408   -6.5869   -3.9769 C   0  0  0  0  0  0  0  0  0  0  0  0
   -2.1670   -7.7483   -3.3432 C   0  0  0  0  0  0  0  0  0  0  0  0
   -2.6119   -6.1274   -3.3197 S   0  0  0  0  0  0  0  0  0  0  0  0
   -3.1072   -8.8860   -3.0793 C   0  0  0  0  0  0  0  0  0  0  0  0
   -3.8706   -9.2581   -4.3458 C   0  0  0  0  0  0  0  0  0  0  0  0
    1.0671    3.8486   -5.0213 C   0  0  0  0  0  0  0  0  0  0  0  0
    0.9299    4.2839   -6.4788 C   0  0  0  0  0  0  0  0  0  0  0  0
    7.6739   -3.1814    8.4901 C   0  0  0  0  0  0  0  0  0  0  0  0
   -0.8331   -7.8392   -3.7395 C   0  0  0  0  0  0  0  0  0  0  0  0
    0.0225   -9.3653   -3.9181 Cl  0  0  0  0  0  0  0  0  0  0  0  0
   -2.1534    3.8547   -4.4914 Cl  0  0  0  0  0  0  0  0  0  0  0  0
   -3.1869    0.6891   -4.1921 Cl  0  0  0  0  0  0  0  0  0  0  0  0
    1.4438   -6.3823   -4.4343 Cl  0  0  0  0  0  0  0  0  0  0  0  0
   -1.6234   -2.5492    7.8506 H   0  0  0  0  0  0  0  0  0  0  0  0
   -0.6728   -0.1693    7.6658 H   0  0  0  0  0  0  0  0  0  0  0  0
   -3.8962    5.2007    3.5857 H   0  0  0  0  0  0  0  0  0  0  0  0
   -3.4580    6.7033    1.5558 H   0  0  0  0  0  0  0  0  0  0  0  0
    1.3151    7.3867    7.3762 H   0  0  0  0  0  0  0  0  0  0  0  0
    1.7724    7.8069    9.0478 H   0  0  0  0  0  0  0  0  0  0  0  0
   -1.1143    8.0432    7.9730 H   0  0  0  0  0  0  0  0  0  0  0  0
    0.0778    9.4001    8.0684 H   0  0  0  0  0  0  0  0  0  0  0  0
   -0.4919    8.5917    9.5825 H   0  0  0  0  0  0  0  0  0  0  0  0
   -1.1434    2.5976   11.4186 H   0  0  0  0  0  0  0  0  0  0  0  0
    0.0481    3.5338   12.3625 H   0  0  0  0  0  0  0  0  0  0  0  0
    0.7326    1.3639   10.2760 H   0  0  0  0  0  0  0  0  0  0  0  0
    0.8610    1.2295   12.0712 H   0  0  0  0  0  0  0  0  0  0  0  0
    1.9367    2.3659   11.1765 H   0  0  0  0  0  0  0  0  0  0  0  0
   -2.7464   -4.6402    7.4191 H   0  0  0  0  0  0  0  0  0  0  0  0
  -11.1853  -11.9162    3.8209 H   0  0  0  0  0  0  0  0  0  0  0  0
  -12.0648   -9.5124    3.2244 H   0  0  0  0  0  0  0  0  0  0  0  0
  -11.1736   -0.7195    4.2530 H   0  0  0  0  0  0  0  0  0  0  0  0
  -10.9416   -1.0529    6.0090 H   0  0  0  0  0  0  0  0  0  0  0  0
   -8.6274   -0.0540    5.9038 H   0  0  0  0  0  0  0  0  0  0  0  0
   -8.9100    0.3592    4.1657 H   0  0  0  0  0  0  0  0  0  0  0  0
   -9.9273    1.1132    5.4457 H   0  0  0  0  0  0  0  0  0  0  0  0
   -5.2613  -12.8013    8.8417 H   0  0  0  0  0  0  0  0  0  0  0  0
   -4.8273  -13.7849    7.4012 H   0  0  0  0  0  0  0  0  0  0  0  0
   -2.6689  -12.4839    7.1876 H   0  0  0  0  0  0  0  0  0  0  0  0
   -2.8183  -13.3271    8.7730 H   0  0  0  0  0  0  0  0  0  0  0  0
   -3.1092  -11.5501    8.6801 H   0  0  0  0  0  0  0  0  0  0  0  0
    6.7426    6.7092   -9.3676 H   0  0  0  0  0  0  0  0  0  0  0  0
    6.5553    5.0247  -11.2631 H   0  0  0  0  0  0  0  0  0  0  0  0
    1.9444   -0.4605  -13.5056 H   0  0  0  0  0  0  0  0  0  0  0  0
    0.7383   -2.1203  -11.9293 H   0  0  0  0  0  0  0  0  0  0  0  0
    7.6851   -1.5788  -15.3684 H   0  0  0  0  0  0  0  0  0  0  0  0
    6.2894   -1.5520  -14.2598 H   0  0  0  0  0  0  0  0  0  0  0  0
    4.8101   -0.7690  -16.1605 H   0  0  0  0  0  0  0  0  0  0  0  0
    5.6741   -2.2963  -16.5918 H   0  0  0  0  0  0  0  0  0  0  0  0
    6.2546   -0.7196  -17.2462 H   0  0  0  0  0  0  0  0  0  0  0  0
    8.2335    4.8061  -15.4363 H   0  0  0  0  0  0  0  0  0  0  0  0
    9.5570    3.7205  -15.9284 H   0  0  0  0  0  0  0  0  0  0  0  0
   10.1554    3.3348  -13.5015 H   0  0  0  0  0  0  0  0  0  0  0  0
    8.9047    4.5473  -13.0284 H   0  0  0  0  0  0  0  0  0  0  0  0
   10.3223    5.0514  -14.0263 H   0  0  0  0  0  0  0  0  0  0  0  0
    6.2253    7.6883   -7.2644 H   0  0  0  0  0  0  0  0  0  0  0  0
   -2.6463    7.3085   -0.5464 H   0  0  0  0  0  0  0  0  0  0  0  0
   -3.5543    9.2223   -8.7326 H   0  0  0  0  0  0  0  0  0  0  0  0
   -3.3749    7.4838   -8.3298 H   0  0  0  0  0  0  0  0  0  0  0  0
   -3.1727    7.8470  -10.7730 H   0  0  0  0  0  0  0  0  0  0  0  0
   -1.7905    8.9855  -10.5203 H   0  0  0  0  0  0  0  0  0  0  0  0
   -1.6148    7.2323  -10.0999 H   0  0  0  0  0  0  0  0  0  0  0  0
    7.5198    7.1283    0.1943 H   0  0  0  0  0  0  0  0  0  0  0  0
    7.3012    8.5430    1.2744 H   0  0  0  0  0  0  0  0  0  0  0  0
    6.0235    5.7563    1.6851 H   0  0  0  0  0  0  0  0  0  0  0  0
    5.8406    7.1810    2.7867 H   0  0  0  0  0  0  0  0  0  0  0  0
    7.4601    6.4096    2.5632 H   0  0  0  0  0  0  0  0  0  0  0  0
    0.2711   -6.7484    1.6522 H   0  0  0  0  0  0  0  0  0  0  0  0
    1.4531   -7.2424    3.8891 H   0  0  0  0  0  0  0  0  0  0  0  0
    6.3656   -6.2670    8.3914 H   0  0  0  0  0  0  0  0  0  0  0  0
    8.4824   -5.0599    9.2379 H   0  0  0  0  0  0  0  0  0  0  0  0
    4.0553   -7.9804   11.2595 H   0  0  0  0  0  0  0  0  0  0  0  0
    2.8273   -8.9565   12.1034 H   0  0  0  0  0  0  0  0  0  0  0  0
    1.5918   -6.7563   12.6948 H   0  0  0  0  0  0  0  0  0  0  0  0
    3.1929   -7.0286   13.4920 H   0  0  0  0  0  0  0  0  0  0  0  0
    3.0675   -5.8882   12.1014 H   0  0  0  0  0  0  0  0  0  0  0  0
   -1.5917   -7.9211    7.5590 H   0  0  0  0  0  0  0  0  0  0  0  0
   -1.7723   -9.1692    8.8156 H   0  0  0  0  0  0  0  0  0  0  0  0
   -0.1460   -9.4338    6.2090 H   0  0  0  0  0  0  0  0  0  0  0  0
   -1.6679  -10.2892    6.6562 H   0  0  0  0  0  0  0  0  0  0  0  0
   -0.1422  -10.6609    7.5405 H   0  0  0  0  0  0  0  0  0  0  0  0
    0.0337   -1.8697    1.3242 H   0  0  0  0  0  0  0  0  0  0  0  0
    0.2200   -3.4440   -9.7291 H   0  0  0  0  0  0  0  0  0  0  0  0
   -2.5523   -9.7712   -2.7037 H   0  0  0  0  0  0  0  0  0  0  0  0
   -3.8319   -8.5878   -2.2928 H   0  0  0  0  0  0  0  0  0  0  0  0
   -3.1650   -9.6024   -5.1340 H   0  0  0  0  0  0  0  0  0  0  0  0
   -4.5881  -10.0730   -4.1278 H   0  0  0  0  0  0  0  0  0  0  0  0
   -4.4390   -8.3765   -4.7234 H   0  0  0  0  0  0  0  0  0  0  0  0
    0.6939    4.6528   -4.3513 H   0  0  0  0  0  0  0  0  0  0  0  0
    2.1411    3.6839   -4.7926 H   0  0  0  0  0  0  0  0  0  0  0  0
   -0.1311    4.5113   -6.7188 H   0  0  0  0  0  0  0  0  0  0  0  0
    1.2914    3.4846   -7.1621 H   0  0  0  0  0  0  0  0  0  0  0  0
    1.5381    5.1997   -6.6454 H   0  0  0  0  0  0  0  0  0  0  0  0
    8.4715   -2.4963    8.7378 H   0  0  0  0  0  0  0  0  0  0  0  0
  1  2  2  0
  2  3  1  0
  3  4  2  0
  4  5  1  0
  5  1  1  0
  4  6  1  0
  6  7  1  0
  7  8  1  0
  8  9  2  0
  9 10  1  0
 10  6  2  0
  9 11  1  0
 11 12  1  0
 12 13  1  0
 13 14  1  0
 14 10  1  0
 12 15  2  0
 15 16  1  0
 16 17  1  0
 17 13  2  0
  8 18  1  0
 18 19  2  0
 19 20  1  0
 20 59  2  0
 59 21  1  0
 21 18  1  0
 11 22  2  0
 14 23  2  0
 15 24  1  0
 24 25  1  0
 17 26  1  0
 26 27  1  0
  1 28  1  0
 28 29  2  0
 29 30  1  0
 30 31  2  0
 31 32  1  0
 32 28  1  0
 30 33  1  0
 33 34  1  0
 34 35  2  0
 35 31  1  0
 34 36  1  0
 36 37  2  0
 37 38  1  0
 38 39  2  0
 39 35  1  0
 37 40  1  0
 40 41  2  0
 41 42  1  0
 42 38  1  0
 40 43  1  0
 43 44  1  0
 44 45  2  0
 45 41  1  0
 36 46  1  0
 39 47  1  0
 46 48  2  0
 48 49  1  0
 49 50  2  0
 50 51  1  0
 51 46  1  0
 47 52  2  0
 52 60  1  0
 60 53  2  0
 53 54  1  0
 54 47  1  0
 53 55  1  0
 55 56  1  0
 50 57  1  0
 57 58  1  0
 60 61  1  0
 49 62  1  0
 48 63  1  0
 52 64  1  0
 65 66  2  0
 66 67  1  0
 67 68  2  0
 68 69  1  0
 69 65  1  0
 68 70  1  0
 70 71  1  0
 71 72  1  0
 72 73  2  0
 73 74  1  0
 74 70  2  0
 73 75  1  0
 75 76  1  0
 76 77  1  0
 77 78  1  0
 78 74  1  0
 76 79  2  0
 79 80  1  0
 80 81  1  0
 81 77  2  0
 72 82  1  0
 82 83  2  0
 83 84  1  0
 84123  2  0
123 85  1  0
 85 82  1  0
 75 86  2  0
 78 87  2  0
 79 88  1  0
 88 89  1  0
 81 90  1  0
 90 91  1  0
 65 92  1  0
 92 93  2  0
 93 94  1  0
 94 95  2  0
 95 96  1  0
 96 92  1  0
 94 97  1  0
 97 98  1  0
 98 99  2  0
 99 95  1  0
 98100  1  0
100101  2  0
101102  1  0
102103  2  0
103 99  1  0
101104  1  0
104105  2  0
105106  1  0
106102  1  0
104107  1  0
107108  1  0
108109  2  0
109105  1  0
100110  1  0
103111  1  0
110112  2  0
112113  1  0
113114  2  0
114115  1  0
115110  1  0
111116  2  0
116124  1  0
124117  2  0
117118  1  0
118111  1  0
117119  1  0
119120  1  0
114121  1  0
121122  1  0
124125  1  0
113126  1  0
112127  1  0
116128  1  0
129130  2  0
130131  1  0
131132  2  0
132133  1  0
133129  1  0
132134  1  0
134135  1  0
135136  1  0
136137  2  0
137138  1  0
138134  2  0
137139  1  0
139140  1  0
140141  1  0
141142  1  0
142138  1  0
140143  2  0
143144  1  0
144145  1  0
145141  2  0
136146  1  0
146147  2  0
147148  1  0
148187  2  0
187149  1  0
149146  1  0
139150  2  0
142151  2  0
143152  1  0
152153  1  0
145154  1  0
154155  1  0
129156  1  0
156157  2  0
157158  1  0
158159  2  0
159160  1  0
160156  1  0
158161  1  0
161162  1  0
162163  2  0
163159  1  0
162164  1  0
164165  2  0
165166  1  0
166167  2  0
167163  1  0
165168  1  0
168169  2  0
169170  1  0
170166  1  0
168171  1  0
171172  1  0
172173  2  0
173169  1  0
164174  1  0
167175  1  0
174176  2  0
176177  1  0
177178  2  0
178179  1  0
179174  1  0
175180  2  0
180188  1  0
188181  2  0
181182  1  0
182175  1  0
181183  1  0
183184  1  0
178185  1  0
185186  1  0
188189  1  0
177190  1  0
176191  1  0
180192  1  0
 59108  1  0
123172  1  0
  2193  1  0
  3194  1  0
 19195  1  0
 20196  1  0
 24197  1  0
 24198  1  0
 25199  1  0
 25200  1  0
 25201  1  0
 26202  1  0
 26203  1  0
 27204  1  0
 27205  1  0
 27206  1  0
 29207  1  0
 44208  1  0
 45209  1  0
 55210  1  0
 55211  1  0
 56212  1  0
 56213  1  0
 56214  1  0
 57215  1  0
 57216  1  0
 58217  1  0
 58218  1  0
 58219  1  0
 66220  1  0
 67221  1  0
 83222  1  0
 84223  1  0
 88224  1  0
 88225  1  0
 89226  1  0
 89227  1  0
 89228  1  0
 90229  1  0
 90230  1  0
 91231  1  0
 91232  1  0
 91233  1  0
 93234  1  0
109235  1  0
119236  1  0
119237  1  0
120238  1  0
120239  1  0
120240  1  0
121241  1  0
121242  1  0
122243  1  0
122244  1  0
122245  1  0
130246  1  0
131247  1  0
147248  1  0
148249  1  0
152250  1  0
152251  1  0
153252  1  0
153253  1  0
153254  1  0
154255  1  0
154256  1  0
155257  1  0
155258  1  0
155259  1  0
157260  1  0
173261  1  0
183262  1  0
183263  1  0
184264  1  0
184265  1  0
184266  1  0
185267  1  0
185268  1  0
186269  1  0
186270  1  0
186271  1  0
187272  1  0
M  END

