PDBT-Cl.sdf
  ChemDraw11082115172D

  0  0  0     0  0              0 V3000
M  V30 BEGIN CTAB
M  V30 COUNTS 186 221 0 0 0
M  V30 BEGIN ATOM
M  V30 1 C -11.689695 2.446893 0.000000 0
M  V30 2 C -12.173039 1.781592 0.000000 0
M  V30 3 C -11.689500 1.116403 0.000000 0
M  V30 4 C -10.908382 1.371521 0.000000 0
M  V30 5 S -10.908353 2.194837 0.000000 0
M  V30 6 C -10.242732 0.888655 0.000000 0
M  V30 7 S -10.241463 0.066081 0.000000 0
M  V30 8 C -9.459415 -0.187531 0.000000 0
M  V30 9 C -8.976971 0.477535 0.000000 0
M  V30 10 C -9.460404 1.142800 0.000000 0
M  V30 11 C -8.159224 0.564292 0.000000 0
M  V30 12 C -7.824908 1.316313 0.000000 0
M  V30 13 C -8.308764 1.980995 0.000000 0
M  V30 14 C -9.126511 1.894238 0.000000 0
M  V30 15 C -7.043588 1.570299 0.000000 0
M  V30 16 S -7.043427 2.393615 0.000000 0
M  V30 17 C -7.825897 2.646644 0.000000 0
M  V30 18 C -9.204784 -0.969460 0.000000 0
M  V30 19 C -9.687560 -1.635174 0.000000 0
M  V30 20 C -9.204621 -2.299951 0.000000 0
M  V30 21 S -8.422118 -1.223391 0.000000 0
M  V30 22 O -7.675351 -0.100627 0.000000 0
M  V30 23 O -9.610446 2.559110 0.000000 0
M  V30 24 C -6.378311 1.086918 0.000000 0
M  V30 25 C -6.464292 0.269081 0.000000 0
M  V30 26 C -8.080853 3.428465 0.000000 0
M  V30 27 C -8.885411 3.598578 0.000000 0
M  V30 28 C -11.944646 3.228718 0.000000 0
M  V30 29 C -11.462053 3.894564 0.000000 0
M  V30 30 C -11.946180 4.559046 0.000000 0
M  V30 31 C -12.728402 4.304581 0.000000 0
M  V30 32 S -12.726797 3.482010 0.000000 0
M  V30 33 S -11.947363 5.382201 0.000000 0
M  V30 34 C -12.729936 5.634909 0.000000 0
M  V30 35 C -13.212530 4.969062 0.000000 0
M  V30 36 C -13.065123 6.385657 0.000000 0
M  V30 37 C -13.882904 6.470557 0.000000 0
M  V30 38 C -14.365497 5.804710 0.000000 0
M  V30 39 C -14.030310 5.053963 0.000000 0
M  V30 40 C -14.366607 7.135623 0.000000 0
M  V30 41 C -15.149253 6.880575 0.000000 0
M  V30 42 S -15.147646 6.058003 0.000000 0
M  V30 43 S -14.368214 7.958195 0.000000 0
M  V30 44 C -15.150364 8.211486 0.000000 0
M  V30 45 C -15.632957 7.545641 0.000000 0
M  V30 46 C -12.582530 7.051505 0.000000 0
M  V30 47 C -14.512905 4.388116 0.000000 0
M  V30 48 C -11.760382 7.052529 0.000000 0
M  V30 49 C -11.506667 7.835261 0.000000 0
M  V30 50 C -12.172514 8.317855 0.000000 0
M  V30 51 S -12.837418 7.833144 0.000000 0
M  V30 52 C -15.335247 4.387094 0.000000 0
M  V30 53 C -14.922595 3.122047 0.000000 0
M  V30 54 S -14.257955 3.606291 0.000000 0
M  V30 55 C -14.922595 2.299705 0.000000 0
M  V30 56 C -14.210424 1.888532 0.000000 0
M  V30 57 C -12.172514 9.140199 0.000000 0
M  V30 58 C -12.884684 9.551370 0.000000 0
M  V30 59 C -8.422328 -2.045701 0.000000 0
M  V30 60 C -15.588600 3.604757 0.000000 0
M  V30 61 Cl -16.370425 3.349805 0.000000 0
M  V30 62 Cl -10.724807 8.090106 0.000000 0
M  V30 63 C -1.572043 -5.165779 0.000000 0
M  V30 64 C -1.572972 -5.988124 0.000000 0
M  V30 65 C -0.790818 -6.242759 0.000000 0
M  V30 66 C -0.308233 -5.577672 0.000000 0
M  V30 67 S -0.791539 -4.911142 0.000000 0
M  V30 68 C 0.514111 -5.577672 0.000000 0
M  V30 69 S 0.998137 -6.242761 0.000000 0
M  V30 70 C 1.780087 -5.988843 0.000000 0
M  V30 71 C 1.780087 -5.167222 0.000000 0
M  V30 72 C 0.998137 -4.912583 0.000000 0
M  V30 73 C 2.391072 -4.616828 0.000000 0
M  V30 74 C 2.220112 -3.811797 0.000000 0
M  V30 75 C 1.438165 -3.557881 0.000000 0
M  V30 76 C 0.827177 -4.108273 0.000000 0
M  V30 77 C 2.703420 -3.147429 0.000000 0
M  V30 78 S 2.220112 -2.480899 0.000000 0
M  V30 79 C 1.438165 -2.735537 0.000000 0
M  V30 80 C 2.445334 -6.472264 0.000000 0
M  V30 81 C 2.445445 -7.294608 0.000000 0
M  V30 82 C 3.226560 -7.549246 0.000000 0
M  V30 83 S 3.228003 -6.218348 0.000000 0
M  V30 84 O 3.173174 -4.870927 0.000000 0
M  V30 85 O 0.045051 -3.854246 0.000000 0
M  V30 86 C 3.525764 -3.147429 0.000000 0
M  V30 87 C 3.936935 -3.859600 0.000000 0
M  V30 88 C 0.772716 -2.252393 0.000000 0
M  V30 89 C 0.021578 -2.587117 0.000000 0
M  V30 90 C -2.237290 -4.682358 0.000000 0
M  V30 91 C -2.237290 -3.860016 0.000000 0
M  V30 92 C -3.019240 -3.606100 0.000000 0
M  V30 93 C -3.503265 -4.271187 0.000000 0
M  V30 94 S -3.019240 -4.936275 0.000000 0
M  V30 95 S -3.503265 -2.940293 0.000000 0
M  V30 96 C -4.285210 -3.194929 0.000000 0
M  V30 97 C -4.285210 -4.017273 0.000000 0
M  V30 98 C -4.997187 -2.783757 0.000000 0
M  V30 99 C -5.709161 -3.194929 0.000000 0
M  V30 100 C -5.709161 -4.017273 0.000000 0
M  V30 101 C -4.997187 -4.428442 0.000000 0
M  V30 102 C -6.491109 -2.940293 0.000000 0
M  V30 103 C -6.975136 -3.606100 0.000000 0
M  V30 104 S -6.491109 -4.271187 0.000000 0
M  V30 105 S -6.975136 -2.275206 0.000000 0
M  V30 106 C -7.757081 -2.529122 0.000000 0
M  V30 107 C -7.757081 -3.351464 0.000000 0
M  V30 108 C -4.997187 -1.961415 0.000000 0
M  V30 109 C -4.997187 -5.250786 0.000000 0
M  V30 110 C -4.332098 -1.478107 0.000000 0
M  V30 111 C -4.586014 -0.695438 0.000000 0
M  V30 112 C -5.408358 -0.695438 0.000000 0
M  V30 113 S -5.662274 -1.478107 0.000000 0
M  V30 114 C -5.662434 -5.734207 0.000000 0
M  V30 115 C -4.585916 -6.516343 0.000000 0
M  V30 116 S -4.331940 -5.734207 0.000000 0
M  V30 117 C -4.102495 -7.181590 0.000000 0
M  V30 118 C -3.284665 -7.095559 0.000000 0
M  V30 119 C -5.891869 -0.030256 0.000000 0
M  V30 120 C -6.709689 -0.116398 0.000000 0
M  V30 121 C 3.710588 -6.884158 0.000000 0
M  V30 122 C -5.408456 -6.516343 0.000000 0
M  V30 123 Cl -5.891877 -7.181590 0.000000 0
M  V30 124 Cl -4.102503 -0.030256 0.000000 0
M  V30 125 C 11.086388 -5.381204 0.000000 0
M  V30 126 C 11.569058 -6.046996 0.000000 0
M  V30 127 C 12.351380 -5.793509 0.000000 0
M  V30 128 C 12.351003 -4.971786 0.000000 0
M  V30 129 S 11.568264 -4.716507 0.000000 0
M  V30 130 C 13.016447 -4.488638 0.000000 0
M  V30 131 S 13.798881 -4.742451 0.000000 0
M  V30 132 C 14.282454 -4.077565 0.000000 0
M  V30 133 C 13.799730 -3.412705 0.000000 0
M  V30 134 C 13.017366 -3.666066 0.000000 0
M  V30 135 C 13.970773 -2.608353 0.000000 0
M  V30 136 C 13.359452 -2.057361 0.000000 0
M  V30 137 C 12.577514 -2.311305 0.000000 0
M  V30 138 C 12.406471 -3.115659 0.000000 0
M  V30 139 C 13.360215 -1.235795 0.000000 0
M  V30 140 S 12.577516 -0.980393 0.000000 0
M  V30 141 C 12.094366 -1.645861 0.000000 0
M  V30 142 C 15.104799 -4.077565 0.000000 0
M  V30 143 C 15.588309 -4.742747 0.000000 0
M  V30 144 C 16.369950 -4.489384 0.000000 0
M  V30 145 S 15.588594 -3.411992 0.000000 0
M  V30 146 O 14.752944 -2.354466 0.000000 0
M  V30 147 O 11.624324 -3.369616 0.000000 0
M  V30 148 C 14.026032 -0.753162 0.000000 0
M  V30 149 C 14.776914 -1.088458 0.000000 0
M  V30 150 C 11.272022 -1.645861 0.000000 0
M  V30 151 C 10.860850 -2.358032 0.000000 0
M  V30 152 C 10.264044 -5.381204 0.000000 0
M  V30 153 C 9.780625 -4.715957 0.000000 0
M  V30 154 C 8.998790 -4.970222 0.000000 0
M  V30 155 C 8.998205 -5.792792 0.000000 0
M  V30 156 S 9.780741 -6.046286 0.000000 0
M  V30 157 S 8.215830 -4.716147 0.000000 0
M  V30 158 C 7.732954 -5.381811 0.000000 0
M  V30 159 C 8.216373 -6.047057 0.000000 0
M  V30 160 C 6.915280 -5.467727 0.000000 0
M  V30 161 C 6.581027 -6.218890 0.000000 0
M  V30 162 C 7.064448 -6.884137 0.000000 0
M  V30 163 C 7.882118 -6.798219 0.000000 0
M  V30 164 C 5.798770 -6.472570 0.000000 0
M  V30 165 C 5.798608 -7.295725 0.000000 0
M  V30 166 S 6.581145 -7.549217 0.000000 0
M  V30 167 S 5.016232 -6.219078 0.000000 0
M  V30 168 C 4.532932 -6.884158 0.000000 0
M  V30 169 C 5.016351 -7.549405 0.000000 0
M  V30 170 C 6.431859 -4.802480 0.000000 0
M  V30 171 C 8.365539 -7.463466 0.000000 0
M  V30 172 C 6.685775 -4.020524 0.000000 0
M  V30 173 C 6.020267 -3.536639 0.000000 0
M  V30 174 C 5.355020 -4.020060 0.000000 0
M  V30 175 S 5.609709 -4.802478 0.000000 0
M  V30 176 C 8.111560 -8.245607 0.000000 0
M  V30 177 C 9.442208 -8.245490 0.000000 0
M  V30 178 S 9.187884 -7.463467 0.000000 0
M  V30 179 C 10.224349 -8.499469 0.000000 0
M  V30 180 C 10.805834 -7.917985 0.000000 0
M  V30 181 C 4.572846 -3.766187 0.000000 0
M  V30 182 C 3.991362 -4.347672 0.000000 0
M  V30 183 C 16.370425 -3.666812 0.000000 0
M  V30 184 C 8.776804 -8.729026 0.000000 0
M  V30 185 Cl 8.776804 -9.551370 0.000000 0
M  V30 186 Cl 6.020267 -2.714295 0.000000 0
M  V30 END ATOM
M  V30 BEGIN BOND
M  V30 1 2 1 2
M  V30 2 1 2 3
M  V30 3 2 3 4
M  V30 4 1 4 5
M  V30 5 1 5 1
M  V30 6 1 4 6
M  V30 7 1 6 7
M  V30 8 1 7 8
M  V30 9 2 8 9
M  V30 10 1 9 10
M  V30 11 2 10 6
M  V30 12 1 9 11
M  V30 13 1 11 12
M  V30 14 1 12 13
M  V30 15 1 13 14
M  V30 16 1 14 10
M  V30 17 2 12 15
M  V30 18 1 15 16
M  V30 19 1 16 17
M  V30 20 2 17 13
M  V30 21 1 8 18
M  V30 22 2 18 19
M  V30 23 1 19 20
M  V30 24 2 20 59
M  V30 25 1 59 21
M  V30 26 1 21 18
M  V30 27 2 11 22
M  V30 28 2 14 23
M  V30 29 1 15 24
M  V30 30 1 24 25
M  V30 31 1 17 26
M  V30 32 1 26 27
M  V30 33 1 1 28
M  V30 34 2 28 29
M  V30 35 1 29 30
M  V30 36 2 30 31
M  V30 37 1 31 32
M  V30 38 1 32 28
M  V30 39 1 30 33
M  V30 40 1 33 34
M  V30 41 2 34 35
M  V30 42 1 35 31
M  V30 43 1 34 36
M  V30 44 2 36 37
M  V30 45 1 37 38
M  V30 46 2 38 39
M  V30 47 1 39 35
M  V30 48 1 37 40
M  V30 49 2 40 41
M  V30 50 1 41 42
M  V30 51 1 42 38
M  V30 52 1 40 43
M  V30 53 1 43 44
M  V30 54 2 44 45
M  V30 55 1 45 41
M  V30 56 1 36 46
M  V30 57 1 39 47
M  V30 58 2 46 48
M  V30 59 1 48 49
M  V30 60 2 49 50
M  V30 61 1 50 51
M  V30 62 1 51 46
M  V30 63 2 47 52
M  V30 64 1 52 60
M  V30 65 2 60 53
M  V30 66 1 53 54
M  V30 67 1 54 47
M  V30 68 1 53 55
M  V30 69 1 55 56
M  V30 70 1 50 57
M  V30 71 1 57 58
M  V30 72 1 60 61
M  V30 73 1 49 62
M  V30 74 2 63 64
M  V30 75 1 64 65
M  V30 76 2 65 66
M  V30 77 1 66 67
M  V30 78 1 67 63
M  V30 79 1 66 68
M  V30 80 1 68 69
M  V30 81 1 69 70
M  V30 82 2 70 71
M  V30 83 1 71 72
M  V30 84 2 72 68
M  V30 85 1 71 73
M  V30 86 1 73 74
M  V30 87 1 74 75
M  V30 88 1 75 76
M  V30 89 1 76 72
M  V30 90 2 74 77
M  V30 91 1 77 78
M  V30 92 1 78 79
M  V30 93 2 79 75
M  V30 94 1 70 80
M  V30 95 2 80 81
M  V30 96 1 81 82
M  V30 97 2 82 121
M  V30 98 1 121 83
M  V30 99 1 83 80
M  V30 100 2 73 84
M  V30 101 2 76 85
M  V30 102 1 77 86
M  V30 103 1 86 87
M  V30 104 1 79 88
M  V30 105 1 88 89
M  V30 106 1 63 90
M  V30 107 2 90 91
M  V30 108 1 91 92
M  V30 109 2 92 93
M  V30 110 1 93 94
M  V30 111 1 94 90
M  V30 112 1 92 95
M  V30 113 1 95 96
M  V30 114 2 96 97
M  V30 115 1 97 93
M  V30 116 1 96 98
M  V30 117 2 98 99
M  V30 118 1 99 100
M  V30 119 2 100 101
M  V30 120 1 101 97
M  V30 121 1 99 102
M  V30 122 2 102 103
M  V30 123 1 103 104
M  V30 124 1 104 100
M  V30 125 1 102 105
M  V30 126 1 105 106
M  V30 127 2 106 107
M  V30 128 1 107 103
M  V30 129 1 98 108
M  V30 130 1 101 109
M  V30 131 2 108 110
M  V30 132 1 110 111
M  V30 133 2 111 112
M  V30 134 1 112 113
M  V30 135 1 113 108
M  V30 136 2 109 114
M  V30 137 1 114 122
M  V30 138 2 122 115
M  V30 139 1 115 116
M  V30 140 1 116 109
M  V30 141 1 115 117
M  V30 142 1 117 118
M  V30 143 1 112 119
M  V30 144 1 119 120
M  V30 145 1 122 123
M  V30 146 1 111 124
M  V30 147 2 125 126
M  V30 148 1 126 127
M  V30 149 2 127 128
M  V30 150 1 128 129
M  V30 151 1 129 125
M  V30 152 1 128 130
M  V30 153 1 130 131
M  V30 154 1 131 132
M  V30 155 2 132 133
M  V30 156 1 133 134
M  V30 157 2 134 130
M  V30 158 1 133 135
M  V30 159 1 135 136
M  V30 160 1 136 137
M  V30 161 1 137 138
M  V30 162 1 138 134
M  V30 163 2 136 139
M  V30 164 1 139 140
M  V30 165 1 140 141
M  V30 166 2 141 137
M  V30 167 1 132 142
M  V30 168 2 142 143
M  V30 169 1 143 144
M  V30 170 2 144 183
M  V30 171 1 183 145
M  V30 172 1 145 142
M  V30 173 2 135 146
M  V30 174 2 138 147
M  V30 175 1 139 148
M  V30 176 1 148 149
M  V30 177 1 141 150
M  V30 178 1 150 151
M  V30 179 1 125 152
M  V30 180 2 152 153
M  V30 181 1 153 154
M  V30 182 2 154 155
M  V30 183 1 155 156
M  V30 184 1 156 152
M  V30 185 1 154 157
M  V30 186 1 157 158
M  V30 187 2 158 159
M  V30 188 1 159 155
M  V30 189 1 158 160
M  V30 190 2 160 161
M  V30 191 1 161 162
M  V30 192 2 162 163
M  V30 193 1 163 159
M  V30 194 1 161 164
M  V30 195 2 164 165
M  V30 196 1 165 166
M  V30 197 1 166 162
M  V30 198 1 164 167
M  V30 199 1 167 168
M  V30 200 2 168 169
M  V30 201 1 169 165
M  V30 202 1 160 170
M  V30 203 1 163 171
M  V30 204 2 170 172
M  V30 205 1 172 173
M  V30 206 2 173 174
M  V30 207 1 174 175
M  V30 208 1 175 170
M  V30 209 2 171 176
M  V30 210 1 176 184
M  V30 211 2 184 177
M  V30 212 1 177 178
M  V30 213 1 178 171
M  V30 214 1 177 179
M  V30 215 1 179 180
M  V30 216 1 174 181
M  V30 217 1 181 182
M  V30 218 1 184 185
M  V30 219 1 173 186
M  V30 220 1 59 106
M  V30 221 1 121 168
M  V30 END BOND
M  V30 END CTAB
M  END
$$$$
