PDBT-F.sdf
  ChemDraw11082115152D

186221  0  0  0  0  0  0  0  0999 V2000
  -11.6844    2.4458    0.0000 C   0  0  0  0  0  0  0  0  0  0  0  0
  -12.1675    1.7808    0.0000 C   0  0  0  0  0  0  0  0  0  0  0  0
  -11.6842    1.1159    0.0000 C   0  0  0  0  0  0  0  0  0  0  0  0
  -10.9034    1.3709    0.0000 C   0  0  0  0  0  0  0  0  0  0  0  0
  -10.9034    2.1938    0.0000 S   0  0  0  0  0  0  0  0  0  0  0  0
  -10.2381    0.8882    0.0000 C   0  0  0  0  0  0  0  0  0  0  0  0
  -10.2368    0.0661    0.0000 S   0  0  0  0  0  0  0  0  0  0  0  0
   -9.4551   -0.1874    0.0000 C   0  0  0  0  0  0  0  0  0  0  0  0
   -8.9729    0.4773    0.0000 C   0  0  0  0  0  0  0  0  0  0  0  0
   -9.4561    1.1423    0.0000 C   0  0  0  0  0  0  0  0  0  0  0  0
   -8.1555    0.5640    0.0000 C   0  0  0  0  0  0  0  0  0  0  0  0
   -7.8214    1.3157    0.0000 C   0  0  0  0  0  0  0  0  0  0  0  0
   -8.3050    1.9801    0.0000 C   0  0  0  0  0  0  0  0  0  0  0  0
   -9.1224    1.8934    0.0000 C   0  0  0  0  0  0  0  0  0  0  0  0
   -7.0404    1.5696    0.0000 C   0  0  0  0  0  0  0  0  0  0  0  0
   -7.0402    2.3925    0.0000 S   0  0  0  0  0  0  0  0  0  0  0  0
   -7.8223    2.6454    0.0000 C   0  0  0  0  0  0  0  0  0  0  0  0
   -9.2006   -0.9690    0.0000 C   0  0  0  0  0  0  0  0  0  0  0  0
   -9.6832   -1.6344    0.0000 C   0  0  0  0  0  0  0  0  0  0  0  0
   -9.2004   -2.2989    0.0000 C   0  0  0  0  0  0  0  0  0  0  0  0
   -8.4183   -1.2228    0.0000 S   0  0  0  0  0  0  0  0  0  0  0  0
   -7.6719   -0.1006    0.0000 O   0  0  0  0  0  0  0  0  0  0  0  0
   -9.6061    2.5579    0.0000 O   0  0  0  0  0  0  0  0  0  0  0  0
   -6.3754    1.0864    0.0000 C   0  0  0  0  0  0  0  0  0  0  0  0
   -6.4614    0.2690    0.0000 C   0  0  0  0  0  0  0  0  0  0  0  0
   -8.0772    3.4269    0.0000 C   0  0  0  0  0  0  0  0  0  0  0  0
   -8.8814    3.5969    0.0000 C   0  0  0  0  0  0  0  0  0  0  0  0
  -11.9392    3.2272    0.0000 C   0  0  0  0  0  0  0  0  0  0  0  0
  -11.4568    3.8928    0.0000 C   0  0  0  0  0  0  0  0  0  0  0  0
  -11.9408    4.5570    0.0000 C   0  0  0  0  0  0  0  0  0  0  0  0
  -12.7226    4.3026    0.0000 C   0  0  0  0  0  0  0  0  0  0  0  0
  -12.7210    3.4804    0.0000 S   0  0  0  0  0  0  0  0  0  0  0  0
  -11.9419    5.3798    0.0000 S   0  0  0  0  0  0  0  0  0  0  0  0
  -12.7242    5.6323    0.0000 C   0  0  0  0  0  0  0  0  0  0  0  0
  -13.2065    4.9668    0.0000 C   0  0  0  0  0  0  0  0  0  0  0  0
  -13.0592    6.3828    0.0000 C   0  0  0  0  0  0  0  0  0  0  0  0
  -13.8766    6.4676    0.0000 C   0  0  0  0  0  0  0  0  0  0  0  0
  -14.3590    5.8021    0.0000 C   0  0  0  0  0  0  0  0  0  0  0  0
  -14.0239    5.0517    0.0000 C   0  0  0  0  0  0  0  0  0  0  0  0
  -14.3601    7.1324    0.0000 C   0  0  0  0  0  0  0  0  0  0  0  0
  -15.1424    6.8774    0.0000 C   0  0  0  0  0  0  0  0  0  0  0  0
  -15.1408    6.0552    0.0000 S   0  0  0  0  0  0  0  0  0  0  0  0
  -14.3617    7.9546    0.0000 S   0  0  0  0  0  0  0  0  0  0  0  0
  -15.1435    8.2078    0.0000 C   0  0  0  0  0  0  0  0  0  0  0  0
  -15.6259    7.5422    0.0000 C   0  0  0  0  0  0  0  0  0  0  0  0
  -12.5768    7.0483    0.0000 C   0  0  0  0  0  0  0  0  0  0  0  0
  -14.5063    4.3861    0.0000 C   0  0  0  0  0  0  0  0  0  0  0  0
  -11.7550    7.0493    0.0000 C   0  0  0  0  0  0  0  0  0  0  0  0
  -11.5014    7.8317    0.0000 C   0  0  0  0  0  0  0  0  0  0  0  0
  -12.1670    8.3141    0.0000 C   0  0  0  0  0  0  0  0  0  0  0  0
  -12.8316    7.8296    0.0000 S   0  0  0  0  0  0  0  0  0  0  0  0
  -15.3283    4.3851    0.0000 C   0  0  0  0  0  0  0  0  0  0  0  0
  -14.9158    3.1206    0.0000 C   0  0  0  0  0  0  0  0  0  0  0  0
  -14.2515    3.6047    0.0000 S   0  0  0  0  0  0  0  0  0  0  0  0
  -14.9158    2.2987    0.0000 C   0  0  0  0  0  0  0  0  0  0  0  0
  -14.2040    1.8877    0.0000 C   0  0  0  0  0  0  0  0  0  0  0  0
  -12.1670    9.1360    0.0000 C   0  0  0  0  0  0  0  0  0  0  0  0
  -12.8788    9.5470    0.0000 C   0  0  0  0  0  0  0  0  0  0  0  0
   -8.4185   -2.0448    0.0000 C   0  0  0  0  0  0  0  0  0  0  0  0
  -15.5815    3.6031    0.0000 C   0  0  0  0  0  0  0  0  0  0  0  0
  -16.3630    3.3483    0.0000 F   0  0  0  0  0  0  0  0  0  0  0  0
  -10.7199    8.0864    0.0000 F   0  0  0  0  0  0  0  0  0  0  0  0
   -1.5713   -5.1634    0.0000 C   0  0  0  0  0  0  0  0  0  0  0  0
   -1.5723   -5.9854    0.0000 C   0  0  0  0  0  0  0  0  0  0  0  0
   -0.7905   -6.2399    0.0000 C   0  0  0  0  0  0  0  0  0  0  0  0
   -0.3081   -5.5751    0.0000 C   0  0  0  0  0  0  0  0  0  0  0  0
   -0.7912   -4.9089    0.0000 S   0  0  0  0  0  0  0  0  0  0  0  0
    0.5139   -5.5751    0.0000 C   0  0  0  0  0  0  0  0  0  0  0  0
    0.9977   -6.2399    0.0000 S   0  0  0  0  0  0  0  0  0  0  0  0
    1.7793   -5.9861    0.0000 C   0  0  0  0  0  0  0  0  0  0  0  0
    1.7793   -5.1649    0.0000 C   0  0  0  0  0  0  0  0  0  0  0  0
    0.9977   -4.9104    0.0000 C   0  0  0  0  0  0  0  0  0  0  0  0
    2.3900   -4.6147    0.0000 C   0  0  0  0  0  0  0  0  0  0  0  0
    2.2191   -3.8101    0.0000 C   0  0  0  0  0  0  0  0  0  0  0  0
    1.4375   -3.5563    0.0000 C   0  0  0  0  0  0  0  0  0  0  0  0
    0.8268   -4.1064    0.0000 C   0  0  0  0  0  0  0  0  0  0  0  0
    2.7022   -3.1460    0.0000 C   0  0  0  0  0  0  0  0  0  0  0  0
    2.2191   -2.4798    0.0000 S   0  0  0  0  0  0  0  0  0  0  0  0
    1.4375   -2.7343    0.0000 C   0  0  0  0  0  0  0  0  0  0  0  0
    2.4442   -6.4693    0.0000 C   0  0  0  0  0  0  0  0  0  0  0  0
    2.4443   -7.2913    0.0000 C   0  0  0  0  0  0  0  0  0  0  0  0
    3.2251   -7.5458    0.0000 C   0  0  0  0  0  0  0  0  0  0  0  0
    3.2265   -6.2155    0.0000 S   0  0  0  0  0  0  0  0  0  0  0  0
    3.1717   -4.8687    0.0000 O   0  0  0  0  0  0  0  0  0  0  0  0
    0.0450   -3.8525    0.0000 O   0  0  0  0  0  0  0  0  0  0  0  0
    3.5242   -3.1460    0.0000 C   0  0  0  0  0  0  0  0  0  0  0  0
    3.9351   -3.8578    0.0000 C   0  0  0  0  0  0  0  0  0  0  0  0
    0.7724   -2.2514    0.0000 C   0  0  0  0  0  0  0  0  0  0  0  0
    0.0216   -2.5859    0.0000 C   0  0  0  0  0  0  0  0  0  0  0  0
   -2.2363   -4.6802    0.0000 C   0  0  0  0  0  0  0  0  0  0  0  0
   -2.2363   -3.8583    0.0000 C   0  0  0  0  0  0  0  0  0  0  0  0
   -3.0179   -3.6045    0.0000 C   0  0  0  0  0  0  0  0  0  0  0  0
   -3.5017   -4.2692    0.0000 C   0  0  0  0  0  0  0  0  0  0  0  0
   -3.0179   -4.9340    0.0000 S   0  0  0  0  0  0  0  0  0  0  0  0
   -3.5017   -2.9390    0.0000 S   0  0  0  0  0  0  0  0  0  0  0  0
   -4.2833   -3.1935    0.0000 C   0  0  0  0  0  0  0  0  0  0  0  0
   -4.2833   -4.0154    0.0000 C   0  0  0  0  0  0  0  0  0  0  0  0
   -4.9949   -2.7825    0.0000 C   0  0  0  0  0  0  0  0  0  0  0  0
   -5.7066   -3.1935    0.0000 C   0  0  0  0  0  0  0  0  0  0  0  0
   -5.7066   -4.0154    0.0000 C   0  0  0  0  0  0  0  0  0  0  0  0
   -4.9949   -4.4264    0.0000 C   0  0  0  0  0  0  0  0  0  0  0  0
   -6.4882   -2.9390    0.0000 C   0  0  0  0  0  0  0  0  0  0  0  0
   -6.9720   -3.6045    0.0000 C   0  0  0  0  0  0  0  0  0  0  0  0
   -6.4882   -4.2692    0.0000 S   0  0  0  0  0  0  0  0  0  0  0  0
   -6.9720   -2.2742    0.0000 S   0  0  0  0  0  0  0  0  0  0  0  0
   -7.7536   -2.5280    0.0000 C   0  0  0  0  0  0  0  0  0  0  0  0
   -7.7536   -3.3499    0.0000 C   0  0  0  0  0  0  0  0  0  0  0  0
   -4.9949   -1.9605    0.0000 C   0  0  0  0  0  0  0  0  0  0  0  0
   -4.9949   -5.2484    0.0000 C   0  0  0  0  0  0  0  0  0  0  0  0
   -4.3301   -1.4774    0.0000 C   0  0  0  0  0  0  0  0  0  0  0  0
   -4.5839   -0.6951    0.0000 C   0  0  0  0  0  0  0  0  0  0  0  0
   -5.4059   -0.6951    0.0000 C   0  0  0  0  0  0  0  0  0  0  0  0
   -5.6597   -1.4774    0.0000 S   0  0  0  0  0  0  0  0  0  0  0  0
   -5.6599   -5.7316    0.0000 C   0  0  0  0  0  0  0  0  0  0  0  0
   -4.5838   -6.5134    0.0000 C   0  0  0  0  0  0  0  0  0  0  0  0
   -4.3300   -5.7316    0.0000 S   0  0  0  0  0  0  0  0  0  0  0  0
   -4.1006   -7.1783    0.0000 C   0  0  0  0  0  0  0  0  0  0  0  0
   -3.2832   -7.0923    0.0000 C   0  0  0  0  0  0  0  0  0  0  0  0
   -5.8892   -0.0302    0.0000 C   0  0  0  0  0  0  0  0  0  0  0  0
   -6.7066   -0.1163    0.0000 C   0  0  0  0  0  0  0  0  0  0  0  0
    3.7089   -6.8810    0.0000 C   0  0  0  0  0  0  0  0  0  0  0  0
   -5.4060   -6.5134    0.0000 C   0  0  0  0  0  0  0  0  0  0  0  0
   -5.8892   -7.1783    0.0000 F   0  0  0  0  0  0  0  0  0  0  0  0
   -4.1006   -0.0302    0.0000 F   0  0  0  0  0  0  0  0  0  0  0  0
   11.0813   -5.3788    0.0000 C   0  0  0  0  0  0  0  0  0  0  0  0
   11.5638   -6.0442    0.0000 C   0  0  0  0  0  0  0  0  0  0  0  0
   12.3458   -5.7909    0.0000 C   0  0  0  0  0  0  0  0  0  0  0  0
   12.3454   -4.9695    0.0000 C   0  0  0  0  0  0  0  0  0  0  0  0
   11.5630   -4.7144    0.0000 S   0  0  0  0  0  0  0  0  0  0  0  0
   13.0105   -4.4866    0.0000 C   0  0  0  0  0  0  0  0  0  0  0  0
   13.7926   -4.7403    0.0000 S   0  0  0  0  0  0  0  0  0  0  0  0
   14.2760   -4.0757    0.0000 C   0  0  0  0  0  0  0  0  0  0  0  0
   13.7935   -3.4112    0.0000 C   0  0  0  0  0  0  0  0  0  0  0  0
   13.0115   -3.6644    0.0000 C   0  0  0  0  0  0  0  0  0  0  0  0
   13.9644   -2.6072    0.0000 C   0  0  0  0  0  0  0  0  0  0  0  0
   13.3534   -2.0564    0.0000 C   0  0  0  0  0  0  0  0  0  0  0  0
   12.5718   -2.3103    0.0000 C   0  0  0  0  0  0  0  0  0  0  0  0
   12.4008   -3.1142    0.0000 C   0  0  0  0  0  0  0  0  0  0  0  0
   13.3541   -1.2352    0.0000 C   0  0  0  0  0  0  0  0  0  0  0  0
   12.5718   -0.9799    0.0000 S   0  0  0  0  0  0  0  0  0  0  0  0
   12.0889   -1.6451    0.0000 C   0  0  0  0  0  0  0  0  0  0  0  0
   15.0979   -4.0757    0.0000 C   0  0  0  0  0  0  0  0  0  0  0  0
   15.5812   -4.7406    0.0000 C   0  0  0  0  0  0  0  0  0  0  0  0
   16.3625   -4.4873    0.0000 C   0  0  0  0  0  0  0  0  0  0  0  0
   15.5815   -3.4104    0.0000 S   0  0  0  0  0  0  0  0  0  0  0  0
   14.7462   -2.3534    0.0000 O   0  0  0  0  0  0  0  0  0  0  0  0
   11.6190   -3.3681    0.0000 O   0  0  0  0  0  0  0  0  0  0  0  0
   14.0197   -0.7528    0.0000 C   0  0  0  0  0  0  0  0  0  0  0  0
   14.7702   -1.0880    0.0000 C   0  0  0  0  0  0  0  0  0  0  0  0
   11.2669   -1.6451    0.0000 C   0  0  0  0  0  0  0  0  0  0  0  0
   10.8559   -2.3570    0.0000 C   0  0  0  0  0  0  0  0  0  0  0  0
   10.2594   -5.3788    0.0000 C   0  0  0  0  0  0  0  0  0  0  0  0
    9.7762   -4.7138    0.0000 C   0  0  0  0  0  0  0  0  0  0  0  0
    8.9947   -4.9680    0.0000 C   0  0  0  0  0  0  0  0  0  0  0  0
    8.9941   -5.7902    0.0000 C   0  0  0  0  0  0  0  0  0  0  0  0
    9.7763   -6.0435    0.0000 S   0  0  0  0  0  0  0  0  0  0  0  0
    8.2121   -4.7140    0.0000 S   0  0  0  0  0  0  0  0  0  0  0  0
    7.7294   -5.3794    0.0000 C   0  0  0  0  0  0  0  0  0  0  0  0
    8.2126   -6.0443    0.0000 C   0  0  0  0  0  0  0  0  0  0  0  0
    6.9121   -5.4652    0.0000 C   0  0  0  0  0  0  0  0  0  0  0  0
    6.5780   -6.2161    0.0000 C   0  0  0  0  0  0  0  0  0  0  0  0
    7.0612   -6.8810    0.0000 C   0  0  0  0  0  0  0  0  0  0  0  0
    7.8785   -6.7951    0.0000 C   0  0  0  0  0  0  0  0  0  0  0  0
    5.7961   -6.4696    0.0000 C   0  0  0  0  0  0  0  0  0  0  0  0
    5.7960   -7.2924    0.0000 C   0  0  0  0  0  0  0  0  0  0  0  0
    6.5782   -7.5458    0.0000 S   0  0  0  0  0  0  0  0  0  0  0  0
    5.0140   -6.2163    0.0000 S   0  0  0  0  0  0  0  0  0  0  0  0
    4.5309   -6.8810    0.0000 C   0  0  0  0  0  0  0  0  0  0  0  0
    5.0141   -7.5460    0.0000 C   0  0  0  0  0  0  0  0  0  0  0  0
    6.4289   -4.8003    0.0000 C   0  0  0  0  0  0  0  0  0  0  0  0
    8.3617   -7.4601    0.0000 C   0  0  0  0  0  0  0  0  0  0  0  0
    6.6827   -4.0187    0.0000 C   0  0  0  0  0  0  0  0  0  0  0  0
    6.0175   -3.5350    0.0000 C   0  0  0  0  0  0  0  0  0  0  0  0
    5.3526   -4.0182    0.0000 C   0  0  0  0  0  0  0  0  0  0  0  0
    5.6072   -4.8003    0.0000 S   0  0  0  0  0  0  0  0  0  0  0  0
    8.1079   -8.2419    0.0000 C   0  0  0  0  0  0  0  0  0  0  0  0
    9.4379   -8.2417    0.0000 C   0  0  0  0  0  0  0  0  0  0  0  0
    9.1837   -7.4601    0.0000 S   0  0  0  0  0  0  0  0  0  0  0  0
   10.2197   -8.4956    0.0000 C   0  0  0  0  0  0  0  0  0  0  0  0
   10.8009   -7.9144    0.0000 C   0  0  0  0  0  0  0  0  0  0  0  0
    4.5708   -3.7645    0.0000 C   0  0  0  0  0  0  0  0  0  0  0  0
    3.9895   -4.3457    0.0000 C   0  0  0  0  0  0  0  0  0  0  0  0
   16.3630   -3.6651    0.0000 C   0  0  0  0  0  0  0  0  0  0  0  0
    8.7728   -8.7251    0.0000 C   0  0  0  0  0  0  0  0  0  0  0  0
    8.7728   -9.5470    0.0000 F   0  0  0  0  0  0  0  0  0  0  0  0
    6.0175   -2.7131    0.0000 F   0  0  0  0  0  0  0  0  0  0  0  0
  1  2  2  0      
  2  3  1  0      
  3  4  2  0      
  4  5  1  0      
  5  1  1  0      
  4  6  1  0      
  6  7  1  0      
  7  8  1  0      
  8  9  2  0      
  9 10  1  0      
 10  6  2  0      
  9 11  1  0      
 11 12  1  0      
 12 13  1  0      
 13 14  1  0      
 14 10  1  0      
 12 15  2  0      
 15 16  1  0      
 16 17  1  0      
 17 13  2  0      
  8 18  1  0      
 18 19  2  0      
 19 20  1  0      
 20 59  2  0      
 59 21  1  0      
 21 18  1  0      
 11 22  2  0      
 14 23  2  0      
 15 24  1  0      
 24 25  1  0      
 17 26  1  0      
 26 27  1  0      
  1 28  1  0      
 28 29  2  0      
 29 30  1  0      
 30 31  2  0      
 31 32  1  0      
 32 28  1  0      
 30 33  1  0      
 33 34  1  0      
 34 35  2  0      
 35 31  1  0      
 34 36  1  0      
 36 37  2  0      
 37 38  1  0      
 38 39  2  0      
 39 35  1  0      
 37 40  1  0      
 40 41  2  0      
 41 42  1  0      
 42 38  1  0      
 40 43  1  0      
 43 44  1  0      
 44 45  2  0      
 45 41  1  0      
 36 46  1  0      
 39 47  1  0      
 46 48  2  0      
 48 49  1  0      
 49 50  2  0      
 50 51  1  0      
 51 46  1  0      
 47 52  2  0      
 52 60  1  0      
 60 53  2  0      
 53 54  1  0      
 54 47  1  0      
 53 55  1  0      
 55 56  1  0      
 50 57  1  0      
 57 58  1  0      
 60 61  1  0      
 49 62  1  0      
 63 64  2  0      
 64 65  1  0      
 65 66  2  0      
 66 67  1  0      
 67 63  1  0      
 66 68  1  0      
 68 69  1  0      
 69 70  1  0      
 70 71  2  0      
 71 72  1  0      
 72 68  2  0      
 71 73  1  0      
 73 74  1  0      
 74 75  1  0      
 75 76  1  0      
 76 72  1  0      
 74 77  2  0      
 77 78  1  0      
 78 79  1  0      
 79 75  2  0      
 70 80  1  0      
 80 81  2  0      
 81 82  1  0      
 82121  2  0      
121 83  1  0      
 83 80  1  0      
 73 84  2  0      
 76 85  2  0      
 77 86  1  0      
 86 87  1  0      
 79 88  1  0      
 88 89  1  0      
 63 90  1  0      
 90 91  2  0      
 91 92  1  0      
 92 93  2  0      
 93 94  1  0      
 94 90  1  0      
 92 95  1  0      
 95 96  1  0      
 96 97  2  0      
 97 93  1  0      
 96 98  1  0      
 98 99  2  0      
 99100  1  0      
100101  2  0      
101 97  1  0      
 99102  1  0      
102103  2  0      
103104  1  0      
104100  1  0      
102105  1  0      
105106  1  0      
106107  2  0      
107103  1  0      
 98108  1  0      
101109  1  0      
108110  2  0      
110111  1  0      
111112  2  0      
112113  1  0      
113108  1  0      
109114  2  0      
114122  1  0      
122115  2  0      
115116  1  0      
116109  1  0      
115117  1  0      
117118  1  0      
112119  1  0      
119120  1  0      
122123  1  0      
111124  1  0      
125126  2  0      
126127  1  0      
127128  2  0      
128129  1  0      
129125  1  0      
128130  1  0      
130131  1  0      
131132  1  0      
132133  2  0      
133134  1  0      
134130  2  0      
133135  1  0      
135136  1  0      
136137  1  0      
137138  1  0      
138134  1  0      
136139  2  0      
139140  1  0      
140141  1  0      
141137  2  0      
132142  1  0      
142143  2  0      
143144  1  0      
144183  2  0      
183145  1  0      
145142  1  0      
135146  2  0      
138147  2  0      
139148  1  0      
148149  1  0      
141150  1  0      
150151  1  0      
125152  1  0      
152153  2  0      
153154  1  0      
154155  2  0      
155156  1  0      
156152  1  0      
154157  1  0      
157158  1  0      
158159  2  0      
159155  1  0      
158160  1  0      
160161  2  0      
161162  1  0      
162163  2  0      
163159  1  0      
161164  1  0      
164165  2  0      
165166  1  0      
166162  1  0      
164167  1  0      
167168  1  0      
168169  2  0      
169165  1  0      
160170  1  0      
163171  1  0      
170172  2  0      
172173  1  0      
173174  2  0      
174175  1  0      
175170  1  0      
171176  2  0      
176184  1  0      
184177  2  0      
177178  1  0      
178171  1  0      
177179  1  0      
179180  1  0      
174181  1  0      
181182  1  0      
184185  1  0      
173186  1  0      
 59106  1  0      
121168  1  0      
M  END
$$$$
