PDBT-2Cl.sdf
  ChemDraw11082115162D

  0  0  0     0  0              0 V3000
M  V30 BEGIN CTAB
M  V30 COUNTS 192 227 0 0 0
M  V30 BEGIN ATOM
M  V30 1 C -11.672307 2.443250 0.000000 0
M  V30 2 C -12.154933 1.778938 0.000000 0
M  V30 3 C -11.672114 1.114740 0.000000 0
M  V30 4 C -10.892156 1.369478 0.000000 0
M  V30 5 S -10.892128 2.191567 0.000000 0
M  V30 6 C -10.227497 0.887329 0.000000 0
M  V30 7 S -10.226230 0.065982 0.000000 0
M  V30 8 C -9.445346 -0.187255 0.000000 0
M  V30 9 C -8.963620 0.476822 0.000000 0
M  V30 10 C -9.446336 1.141097 0.000000 0
M  V30 11 C -8.147092 0.563450 0.000000 0
M  V30 12 C -7.813273 1.314353 0.000000 0
M  V30 13 C -8.296408 1.978044 0.000000 0
M  V30 14 C -9.112938 1.891417 0.000000 0
M  V30 15 C -7.033115 1.567960 0.000000 0
M  V30 16 S -7.032954 2.390051 0.000000 0
M  V30 17 C -7.814261 2.642703 0.000000 0
M  V30 18 C -9.191094 -0.968019 0.000000 0
M  V30 19 C -9.673153 -1.632744 0.000000 0
M  V30 20 C -9.190933 -2.296529 0.000000 0
M  V30 21 S -8.409593 -1.221572 0.000000 0
M  V30 22 O -7.663938 -0.100478 0.000000 0
M  V30 23 O -9.596152 2.555301 0.000000 0
M  V30 24 C -6.368827 1.085299 0.000000 0
M  V30 25 C -6.454682 0.268679 0.000000 0
M  V30 26 C -8.068838 3.423362 0.000000 0
M  V30 27 C -8.872198 3.593221 0.000000 0
M  V30 28 C -11.926878 3.223912 0.000000 0
M  V30 29 C -11.445003 3.888766 0.000000 0
M  V30 30 C -11.928410 4.552260 0.000000 0
M  V30 31 C -12.709468 4.298173 0.000000 0
M  V30 32 S -12.707865 3.476827 0.000000 0
M  V30 33 S -11.929591 5.374191 0.000000 0
M  V30 34 C -12.711000 5.626522 0.000000 0
M  V30 35 C -13.192875 4.961666 0.000000 0
M  V30 36 C -13.045687 6.376153 0.000000 0
M  V30 37 C -13.862250 6.460928 0.000000 0
M  V30 38 C -14.344125 5.796072 0.000000 0
M  V30 39 C -14.009439 5.046441 0.000000 0
M  V30 40 C -14.345233 7.125005 0.000000 0
M  V30 41 C -15.126717 6.870335 0.000000 0
M  V30 42 S -15.125111 6.048987 0.000000 0
M  V30 43 S -14.346839 7.946351 0.000000 0
M  V30 44 C -15.127824 8.199266 0.000000 0
M  V30 45 C -15.609700 7.534411 0.000000 0
M  V30 46 C -12.563812 7.041010 0.000000 0
M  V30 47 C -14.491315 4.381586 0.000000 0
M  V30 48 C -11.742889 7.042032 0.000000 0
M  V30 49 C -11.489550 7.823600 0.000000 0
M  V30 50 C -12.154408 8.305475 0.000000 0
M  V30 51 S -12.818322 7.821485 0.000000 0
M  V30 52 C -15.312435 4.380565 0.000000 0
M  V30 53 C -14.900396 3.117401 0.000000 0
M  V30 54 S -14.236745 3.600924 0.000000 0
M  V30 55 C -14.900396 2.296281 0.000000 0
M  V30 56 C -14.189286 1.885722 0.000000 0
M  V30 57 C -12.154408 9.126594 0.000000 0
M  V30 58 C -12.865518 9.537154 0.000000 0
M  V30 59 C -8.409804 -2.042657 0.000000 0
M  V30 60 C -15.565411 3.599393 0.000000 0
M  V30 61 Cl -16.346072 3.344822 0.000000 0
M  V30 62 Cl -10.708856 8.078065 0.000000 0
M  V30 63 Cl -11.259598 6.378203 0.000000 0
M  V30 64 Cl -15.795812 5.044330 0.000000 0
M  V30 65 C -1.569710 -5.158095 0.000000 0
M  V30 66 C -1.570637 -5.979213 0.000000 0
M  V30 67 C -0.789645 -6.233473 0.000000 0
M  V30 68 C -0.307778 -5.569374 0.000000 0
M  V30 69 S -0.790366 -4.903835 0.000000 0
M  V30 70 C 0.513342 -5.569374 0.000000 0
M  V30 71 S 0.996650 -6.233473 0.000000 0
M  V30 72 C 1.777436 -5.979934 0.000000 0
M  V30 73 C 1.777436 -5.159534 0.000000 0
M  V30 74 C 0.996650 -4.905275 0.000000 0
M  V30 75 C 2.387511 -4.609959 0.000000 0
M  V30 76 C 2.216805 -3.806127 0.000000 0
M  V30 77 C 1.436021 -3.552588 0.000000 0
M  V30 78 C 0.825944 -4.102161 0.000000 0
M  V30 79 C 2.699394 -3.142747 0.000000 0
M  V30 80 S 2.216805 -2.477208 0.000000 0
M  V30 81 C 1.436021 -2.731468 0.000000 0
M  V30 82 C 2.441692 -6.462635 0.000000 0
M  V30 83 C 2.441803 -7.283755 0.000000 0
M  V30 84 C 3.221756 -7.538014 0.000000 0
M  V30 85 S 3.223197 -6.209096 0.000000 0
M  V30 86 O 3.168450 -4.863680 0.000000 0
M  V30 87 O 0.044983 -3.848511 0.000000 0
M  V30 88 C 3.520514 -3.142747 0.000000 0
M  V30 89 C 3.931074 -3.853858 0.000000 0
M  V30 90 C 0.771563 -2.249043 0.000000 0
M  V30 91 C 0.021542 -2.583269 0.000000 0
M  V30 92 C -2.233968 -4.675392 0.000000 0
M  V30 93 C -2.233968 -3.854275 0.000000 0
M  V30 94 C -3.014751 -3.600736 0.000000 0
M  V30 95 C -3.498058 -4.264833 0.000000 0
M  V30 96 S -3.014751 -4.928931 0.000000 0
M  V30 97 S -3.498058 -2.935917 0.000000 0
M  V30 98 C -4.278841 -3.190175 0.000000 0
M  V30 99 C -4.278841 -4.011295 0.000000 0
M  V30 100 C -4.989758 -2.779617 0.000000 0
M  V30 101 C -5.700674 -3.190175 0.000000 0
M  V30 102 C -5.700674 -4.011295 0.000000 0
M  V30 103 C -4.989758 -4.421855 0.000000 0
M  V30 104 C -6.481456 -2.935917 0.000000 0
M  V30 105 C -6.964763 -3.600736 0.000000 0
M  V30 106 S -6.481456 -4.264833 0.000000 0
M  V30 107 S -6.964763 -2.271820 0.000000 0
M  V30 108 C -7.745546 -2.525358 0.000000 0
M  V30 109 C -7.745546 -3.346477 0.000000 0
M  V30 110 C -4.989758 -1.958497 0.000000 0
M  V30 111 C -4.989758 -5.242973 0.000000 0
M  V30 112 C -4.325658 -1.475908 0.000000 0
M  V30 113 C -4.579197 -0.694408 0.000000 0
M  V30 114 C -5.400317 -0.694408 0.000000 0
M  V30 115 S -5.653856 -1.475908 0.000000 0
M  V30 116 C -5.654014 -5.725676 0.000000 0
M  V30 117 C -4.579100 -6.506645 0.000000 0
M  V30 118 S -4.325501 -5.725676 0.000000 0
M  V30 119 C -4.096399 -7.170903 0.000000 0
M  V30 120 C -3.279785 -7.084999 0.000000 0
M  V30 121 C -5.883108 -0.030216 0.000000 0
M  V30 122 C -6.699710 -0.116228 0.000000 0
M  V30 123 C 3.705066 -6.873915 0.000000 0
M  V30 124 C -5.400415 -6.506645 0.000000 0
M  V30 125 Cl -5.883116 -7.170903 0.000000 0
M  V30 126 Cl -4.096406 -0.030216 0.000000 0
M  V30 127 Cl -3.544773 -1.729787 0.000000 0
M  V30 128 Cl -6.434934 -5.471902 0.000000 0
M  V30 129 C 11.069893 -5.373197 0.000000 0
M  V30 130 C 11.551844 -6.037998 0.000000 0
M  V30 131 C 12.333004 -5.784890 0.000000 0
M  V30 132 C 12.332628 -4.964389 0.000000 0
M  V30 133 S 11.551052 -4.709487 0.000000 0
M  V30 134 C 12.997082 -4.481960 0.000000 0
M  V30 135 S 13.778352 -4.735396 0.000000 0
M  V30 136 C 14.261209 -4.071498 0.000000 0
M  V30 137 C 13.779202 -3.407627 0.000000 0
M  V30 138 C 12.998004 -3.660610 0.000000 0
M  V30 139 C 13.949991 -2.604473 0.000000 0
M  V30 140 C 13.339582 -2.054302 0.000000 0
M  V30 141 C 12.558808 -2.307866 0.000000 0
M  V30 142 C 12.388018 -3.111021 0.000000 0
M  V30 143 C 13.340344 -1.233958 0.000000 0
M  V30 144 S 12.558809 -0.978932 0.000000 0
M  V30 145 C 12.076378 -1.643411 0.000000 0
M  V30 146 C 15.082329 -4.071498 0.000000 0
M  V30 147 C 15.565120 -4.735691 0.000000 0
M  V30 148 C 16.345598 -4.482707 0.000000 0
M  V30 149 S 15.565404 -3.406916 0.000000 0
M  V30 150 O 14.730997 -2.350964 0.000000 0
M  V30 151 O 11.607034 -3.364600 0.000000 0
M  V30 152 C 14.005171 -0.752042 0.000000 0
M  V30 153 C 14.754935 -1.086841 0.000000 0
M  V30 154 C 11.255258 -1.643411 0.000000 0
M  V30 155 C 10.844699 -2.354522 0.000000 0
M  V30 156 C 10.248773 -5.373197 0.000000 0
M  V30 157 C 9.766073 -4.708941 0.000000 0
M  V30 158 C 8.985401 -4.962827 0.000000 0
M  V30 159 C 8.984818 -5.784173 0.000000 0
M  V30 160 S 9.766191 -6.037291 0.000000 0
M  V30 161 S 8.203605 -4.709127 0.000000 0
M  V30 162 C 7.721446 -5.373802 0.000000 0
M  V30 163 C 8.204147 -6.038060 0.000000 0
M  V30 164 C 6.904990 -5.459592 0.000000 0
M  V30 165 C 6.571234 -6.209636 0.000000 0
M  V30 166 C 7.053935 -6.873893 0.000000 0
M  V30 167 C 7.870391 -6.788103 0.000000 0
M  V30 168 C 5.790141 -6.462938 0.000000 0
M  V30 169 C 5.789980 -7.284868 0.000000 0
M  V30 170 S 6.571353 -7.537984 0.000000 0
M  V30 171 S 5.008768 -6.209822 0.000000 0
M  V30 172 C 4.526187 -6.873915 0.000000 0
M  V30 173 C 5.008886 -7.538171 0.000000 0
M  V30 174 C 6.422289 -4.795334 0.000000 0
M  V30 175 C 8.353092 -7.452361 0.000000 0
M  V30 176 C 6.675829 -4.014541 0.000000 0
M  V30 177 C 6.011314 -3.531379 0.000000 0
M  V30 178 C 5.347058 -4.014080 0.000000 0
M  V30 179 S 5.601364 -4.795332 0.000000 0
M  V30 180 C 8.099492 -8.233337 0.000000 0
M  V30 181 C 9.428158 -8.233219 0.000000 0
M  V30 182 S 9.174212 -7.452362 0.000000 0
M  V30 183 C 10.209135 -8.486821 0.000000 0
M  V30 184 C 10.789754 -7.906200 0.000000 0
M  V30 185 C 4.566047 -3.760584 0.000000 0
M  V30 186 C 3.985426 -4.341204 0.000000 0
M  V30 187 C 16.346072 -3.661356 0.000000 0
M  V30 188 C 8.763742 -8.716034 0.000000 0
M  V30 189 Cl 8.763742 -9.537154 0.000000 0
M  V30 190 Cl 6.011314 -2.710260 0.000000 0
M  V30 191 Cl 7.456783 -3.760872 0.000000 0
M  V30 192 Cl 7.318572 -8.487113 0.000000 0
M  V30 END ATOM
M  V30 BEGIN BOND
M  V30 1 2 1 2
M  V30 2 1 2 3
M  V30 3 2 3 4
M  V30 4 1 4 5
M  V30 5 1 5 1
M  V30 6 1 4 6
M  V30 7 1 6 7
M  V30 8 1 7 8
M  V30 9 2 8 9
M  V30 10 1 9 10
M  V30 11 2 10 6
M  V30 12 1 9 11
M  V30 13 1 11 12
M  V30 14 1 12 13
M  V30 15 1 13 14
M  V30 16 1 14 10
M  V30 17 2 12 15
M  V30 18 1 15 16
M  V30 19 1 16 17
M  V30 20 2 17 13
M  V30 21 1 8 18
M  V30 22 2 18 19
M  V30 23 1 19 20
M  V30 24 2 20 59
M  V30 25 1 59 21
M  V30 26 1 21 18
M  V30 27 2 11 22
M  V30 28 2 14 23
M  V30 29 1 15 24
M  V30 30 1 24 25
M  V30 31 1 17 26
M  V30 32 1 26 27
M  V30 33 1 1 28
M  V30 34 2 28 29
M  V30 35 1 29 30
M  V30 36 2 30 31
M  V30 37 1 31 32
M  V30 38 1 32 28
M  V30 39 1 30 33
M  V30 40 1 33 34
M  V30 41 2 34 35
M  V30 42 1 35 31
M  V30 43 1 34 36
M  V30 44 2 36 37
M  V30 45 1 37 38
M  V30 46 2 38 39
M  V30 47 1 39 35
M  V30 48 1 37 40
M  V30 49 2 40 41
M  V30 50 1 41 42
M  V30 51 1 42 38
M  V30 52 1 40 43
M  V30 53 1 43 44
M  V30 54 2 44 45
M  V30 55 1 45 41
M  V30 56 1 36 46
M  V30 57 1 39 47
M  V30 58 2 46 48
M  V30 59 1 48 49
M  V30 60 2 49 50
M  V30 61 1 50 51
M  V30 62 1 51 46
M  V30 63 2 47 52
M  V30 64 1 52 60
M  V30 65 2 60 53
M  V30 66 1 53 54
M  V30 67 1 54 47
M  V30 68 1 53 55
M  V30 69 1 55 56
M  V30 70 1 50 57
M  V30 71 1 57 58
M  V30 72 1 60 61
M  V30 73 1 49 62
M  V30 74 1 48 63
M  V30 75 1 52 64
M  V30 76 2 65 66
M  V30 77 1 66 67
M  V30 78 2 67 68
M  V30 79 1 68 69
M  V30 80 1 69 65
M  V30 81 1 68 70
M  V30 82 1 70 71
M  V30 83 1 71 72
M  V30 84 2 72 73
M  V30 85 1 73 74
M  V30 86 2 74 70
M  V30 87 1 73 75
M  V30 88 1 75 76
M  V30 89 1 76 77
M  V30 90 1 77 78
M  V30 91 1 78 74
M  V30 92 2 76 79
M  V30 93 1 79 80
M  V30 94 1 80 81
M  V30 95 2 81 77
M  V30 96 1 72 82
M  V30 97 2 82 83
M  V30 98 1 83 84
M  V30 99 2 84 123
M  V30 100 1 123 85
M  V30 101 1 85 82
M  V30 102 2 75 86
M  V30 103 2 78 87
M  V30 104 1 79 88
M  V30 105 1 88 89
M  V30 106 1 81 90
M  V30 107 1 90 91
M  V30 108 1 65 92
M  V30 109 2 92 93
M  V30 110 1 93 94
M  V30 111 2 94 95
M  V30 112 1 95 96
M  V30 113 1 96 92
M  V30 114 1 94 97
M  V30 115 1 97 98
M  V30 116 2 98 99
M  V30 117 1 99 95
M  V30 118 1 98 100
M  V30 119 2 100 101
M  V30 120 1 101 102
M  V30 121 2 102 103
M  V30 122 1 103 99
M  V30 123 1 101 104
M  V30 124 2 104 105
M  V30 125 1 105 106
M  V30 126 1 106 102
M  V30 127 1 104 107
M  V30 128 1 107 108
M  V30 129 2 108 109
M  V30 130 1 109 105
M  V30 131 1 100 110
M  V30 132 1 103 111
M  V30 133 2 110 112
M  V30 134 1 112 113
M  V30 135 2 113 114
M  V30 136 1 114 115
M  V30 137 1 115 110
M  V30 138 2 111 116
M  V30 139 1 116 124
M  V30 140 2 124 117
M  V30 141 1 117 118
M  V30 142 1 118 111
M  V30 143 1 117 119
M  V30 144 1 119 120
M  V30 145 1 114 121
M  V30 146 1 121 122
M  V30 147 1 124 125
M  V30 148 1 113 126
M  V30 149 1 112 127
M  V30 150 1 116 128
M  V30 151 2 129 130
M  V30 152 1 130 131
M  V30 153 2 131 132
M  V30 154 1 132 133
M  V30 155 1 133 129
M  V30 156 1 132 134
M  V30 157 1 134 135
M  V30 158 1 135 136
M  V30 159 2 136 137
M  V30 160 1 137 138
M  V30 161 2 138 134
M  V30 162 1 137 139
M  V30 163 1 139 140
M  V30 164 1 140 141
M  V30 165 1 141 142
M  V30 166 1 142 138
M  V30 167 2 140 143
M  V30 168 1 143 144
M  V30 169 1 144 145
M  V30 170 2 145 141
M  V30 171 1 136 146
M  V30 172 2 146 147
M  V30 173 1 147 148
M  V30 174 2 148 187
M  V30 175 1 187 149
M  V30 176 1 149 146
M  V30 177 2 139 150
M  V30 178 2 142 151
M  V30 179 1 143 152
M  V30 180 1 152 153
M  V30 181 1 145 154
M  V30 182 1 154 155
M  V30 183 1 129 156
M  V30 184 2 156 157
M  V30 185 1 157 158
M  V30 186 2 158 159
M  V30 187 1 159 160
M  V30 188 1 160 156
M  V30 189 1 158 161
M  V30 190 1 161 162
M  V30 191 2 162 163
M  V30 192 1 163 159
M  V30 193 1 162 164
M  V30 194 2 164 165
M  V30 195 1 165 166
M  V30 196 2 166 167
M  V30 197 1 167 163
M  V30 198 1 165 168
M  V30 199 2 168 169
M  V30 200 1 169 170
M  V30 201 1 170 166
M  V30 202 1 168 171
M  V30 203 1 171 172
M  V30 204 2 172 173
M  V30 205 1 173 169
M  V30 206 1 164 174
M  V30 207 1 167 175
M  V30 208 2 174 176
M  V30 209 1 176 177
M  V30 210 2 177 178
M  V30 211 1 178 179
M  V30 212 1 179 174
M  V30 213 2 175 180
M  V30 214 1 180 188
M  V30 215 2 188 181
M  V30 216 1 181 182
M  V30 217 1 182 175
M  V30 218 1 181 183
M  V30 219 1 183 184
M  V30 220 1 178 185
M  V30 221 1 185 186
M  V30 222 1 188 189
M  V30 223 1 177 190
M  V30 224 1 176 191
M  V30 225 1 180 192
M  V30 226 1 59 108
M  V30 227 1 123 172
M  V30 END BOND
M  V30 END CTAB
M  END
$$$$
