PTPDBDT.sdf
  ChemDraw11012112202D

  0  0  0     0  0              0 V3000
M  V30 BEGIN CTAB
M  V30 COUNTS 114 134 0 0 0
M  V30 BEGIN ATOM
M  V30 1 C -4.552580 1.665122 0.000000 0
M  V30 2 C -5.260286 2.073573 0.000000 0
M  V30 3 C -5.260286 2.891380 0.000000 0
M  V30 4 C -4.552580 3.300732 0.000000 0
M  V30 5 C -3.845038 2.891246 0.000000 0
M  V30 6 C -3.844479 2.073944 0.000000 0
M  V30 7 C -6.038035 1.820949 0.000000 0
M  V30 8 C -6.518218 2.482644 0.000000 0
M  V30 9 S -6.038674 3.144157 0.000000 0
M  V30 10 C -3.067289 3.143871 0.000000 0
M  V30 11 C -2.586942 2.483209 0.000000 0
M  V30 12 S -3.066486 1.821697 0.000000 0
M  V30 13 C -4.552580 0.847553 0.000000 0
M  V30 14 C -4.552580 4.118300 0.000000 0
M  V30 15 C -3.891255 0.366859 0.000000 0
M  V30 16 C -4.143989 -0.410510 0.000000 0
M  V30 17 C -4.961843 -0.410400 0.000000 0
M  V30 18 S -5.213944 0.366831 0.000000 0
M  V30 19 C -5.213435 4.598055 0.000000 0
M  V30 20 C -4.961452 5.375881 0.000000 0
M  V30 21 C -4.143827 5.376029 0.000000 0
M  V30 22 S -3.891116 4.598496 0.000000 0
M  V30 23 C -5.442609 -1.071672 0.000000 0
M  V30 24 C -5.110314 -1.818664 0.000000 0
M  V30 25 C -3.663359 6.037519 0.000000 0
M  V30 26 C -3.995993 6.784361 0.000000 0
M  V30 27 C -7.335787 2.482644 0.000000 0
M  V30 28 S -7.816211 1.821227 0.000000 0
M  V30 29 C -8.593600 2.073576 0.000000 0
M  V30 30 C -8.593677 2.891421 0.000000 0
M  V30 31 C -7.816051 3.143841 0.000000 0
M  V30 32 C -9.074681 3.552617 0.000000 0
M  V30 33 N -8.593517 4.214774 0.000000 0
M  V30 34 C -7.816128 3.961684 0.000000 0
M  V30 35 O -9.892249 3.552617 0.000000 0
M  V30 36 O -7.154585 4.442078 0.000000 0
M  V30 37 C -8.845903 4.992410 0.000000 0
M  V30 38 C -9.645550 5.162656 0.000000 0
M  V30 39 C 1.258832 -0.223333 0.000000 0
M  V30 40 C 0.926696 0.523237 0.000000 0
M  V30 41 C 1.407680 1.184643 0.000000 0
M  V30 42 C 2.220800 1.099481 0.000000 0
M  V30 43 C 2.552195 0.352170 0.000000 0
M  V30 44 C 2.071952 -0.309236 0.000000 0
M  V30 45 C 0.149106 0.776350 0.000000 0
M  V30 46 C 0.149924 1.593915 0.000000 0
M  V30 47 S 0.926821 1.846881 0.000000 0
M  V30 48 C 3.329785 0.099059 0.000000 0
M  V30 49 C 3.329708 -0.717767 0.000000 0
M  V30 50 S 2.552811 -0.970734 0.000000 0
M  V30 51 C 0.778006 -0.884562 0.000000 0
M  V30 52 C 2.701725 1.760638 0.000000 0
M  V30 53 C 1.030164 -1.662273 0.000000 0
M  V30 54 C 0.368575 -2.142352 0.000000 0
M  V30 55 C -0.292821 -1.661268 0.000000 0
M  V30 56 S -0.039611 -0.884398 0.000000 0
M  V30 57 C 2.449509 2.537351 0.000000 0
M  V30 58 C 3.110835 3.018143 0.000000 0
M  V30 59 C 3.772124 2.537302 0.000000 0
M  V30 60 S 3.519112 1.759869 0.000000 0
M  V30 61 C -1.070559 -1.913342 0.000000 0
M  V30 62 C -1.241127 -2.712919 0.000000 0
M  V30 63 C 4.549786 2.789611 0.000000 0
M  V30 64 C 4.720111 3.589240 0.000000 0
M  V30 65 C -0.511413 2.074593 0.000000 0
M  V30 66 S -1.288903 1.822028 0.000000 0
M  V30 67 C -1.769374 2.483209 0.000000 0
M  V30 68 C -1.288596 3.144815 0.000000 0
M  V30 69 C -0.511161 2.891805 0.000000 0
M  V30 70 C -1.288942 3.962461 0.000000 0
M  V30 71 N -0.510417 4.215192 0.000000 0
M  V30 72 C -0.030382 3.553411 0.000000 0
M  V30 73 O -1.950407 4.442964 0.000000 0
M  V30 74 O 0.787186 3.553411 0.000000 0
M  V30 75 C -0.257374 4.992616 0.000000 0
M  V30 76 C -0.804121 5.600469 0.000000 0
M  V30 77 C 4.851320 -5.167493 0.000000 0
M  V30 78 C 5.021227 -4.368234 0.000000 0
M  V30 79 C 5.799049 -4.115653 0.000000 0
M  V30 80 C 6.406965 -4.662330 0.000000 0
M  V30 81 C 6.236024 -5.461752 0.000000 0
M  V30 82 C 5.458801 -5.714767 0.000000 0
M  V30 83 C 4.540745 -3.706533 0.000000 0
M  V30 84 C 5.021783 -3.045462 0.000000 0
M  V30 85 S 5.799063 -3.297250 0.000000 0
M  V30 86 C 6.716508 -6.123452 0.000000 0
M  V30 87 C 6.236502 -6.784361 0.000000 0
M  V30 88 S 5.459223 -6.532572 0.000000 0
M  V30 89 C 4.073730 -5.420020 0.000000 0
M  V30 90 C 7.184594 -4.409917 0.000000 0
M  V30 91 C 3.820810 -6.197485 0.000000 0
M  V30 92 C 3.003389 -6.197222 0.000000 0
M  V30 93 C 2.750876 -5.419325 0.000000 0
M  V30 94 S 3.412233 -4.939481 0.000000 0
M  V30 95 C 7.436880 -3.633228 0.000000 0
M  V30 96 C 8.254506 -3.632759 0.000000 0
M  V30 97 C 8.507076 -4.410397 0.000000 0
M  V30 98 S 7.845549 -4.890813 0.000000 0
M  V30 99 C 1.973440 -5.166319 0.000000 0
M  V30 100 C 1.365614 -5.713096 0.000000 0
M  V30 101 C 9.284588 -4.663166 0.000000 0
M  V30 102 C 9.892249 -4.116206 0.000000 0
M  V30 103 C 4.769080 -2.267929 0.000000 0
M  V30 104 S 3.991556 -2.015467 0.000000 0
M  V30 105 C 3.991263 -1.198147 0.000000 0
M  V30 106 C 4.769036 -0.945284 0.000000 0
M  V30 107 C 5.249453 -1.606811 0.000000 0
M  V30 108 C 5.249181 -0.283463 0.000000 0
M  V30 109 N 6.027638 -0.536398 0.000000 0
M  V30 110 C 6.027227 -1.353948 0.000000 0
M  V30 111 O 4.996270 0.494003 0.000000 0
M  V30 112 O 6.688574 -1.834613 0.000000 0
M  V30 113 C 6.689185 -0.056009 0.000000 0
M  V30 114 C 6.603929 0.757102 0.000000 0
M  V30 END ATOM
M  V30 BEGIN BOND
M  V30 1 1 1 2
M  V30 2 2 2 3
M  V30 3 1 3 4
M  V30 4 2 4 5
M  V30 5 1 5 6
M  V30 6 2 6 1
M  V30 7 1 2 7
M  V30 8 2 7 8
M  V30 9 1 8 9
M  V30 10 1 9 3
M  V30 11 1 5 10
M  V30 12 2 10 11
M  V30 13 1 11 12
M  V30 14 1 12 6
M  V30 15 1 1 13
M  V30 16 1 4 14
M  V30 17 2 13 15
M  V30 18 1 15 16
M  V30 19 2 16 17
M  V30 20 1 17 18
M  V30 21 1 18 13
M  V30 22 2 14 19
M  V30 23 1 19 20
M  V30 24 2 20 21
M  V30 25 1 21 22
M  V30 26 1 22 14
M  V30 27 1 17 23
M  V30 28 1 23 24
M  V30 29 1 21 25
M  V30 30 1 25 26
M  V30 31 1 27 28
M  V30 32 1 28 29
M  V30 33 2 29 30
M  V30 34 1 30 31
M  V30 35 2 31 27
M  V30 36 1 30 32
M  V30 37 1 32 33
M  V30 38 1 33 34
M  V30 39 1 34 31
M  V30 40 2 32 35
M  V30 41 2 34 36
M  V30 42 1 33 37
M  V30 43 1 37 38
M  V30 44 1 27 8
M  V30 45 1 39 40
M  V30 46 2 40 41
M  V30 47 1 41 42
M  V30 48 2 42 43
M  V30 49 1 43 44
M  V30 50 2 44 39
M  V30 51 1 40 45
M  V30 52 2 45 46
M  V30 53 1 46 47
M  V30 54 1 47 41
M  V30 55 1 43 48
M  V30 56 2 48 49
M  V30 57 1 49 50
M  V30 58 1 50 44
M  V30 59 1 39 51
M  V30 60 1 42 52
M  V30 61 2 51 53
M  V30 62 1 53 54
M  V30 63 2 54 55
M  V30 64 1 55 56
M  V30 65 1 56 51
M  V30 66 2 52 57
M  V30 67 1 57 58
M  V30 68 2 58 59
M  V30 69 1 59 60
M  V30 70 1 60 52
M  V30 71 1 55 61
M  V30 72 1 61 62
M  V30 73 1 59 63
M  V30 74 1 63 64
M  V30 75 1 65 66
M  V30 76 1 66 67
M  V30 77 2 67 68
M  V30 78 1 68 69
M  V30 79 2 69 65
M  V30 80 1 68 70
M  V30 81 1 70 71
M  V30 82 1 71 72
M  V30 83 1 72 69
M  V30 84 2 70 73
M  V30 85 2 72 74
M  V30 86 1 71 75
M  V30 87 1 75 76
M  V30 88 1 65 46
M  V30 89 1 77 78
M  V30 90 2 78 79
M  V30 91 1 79 80
M  V30 92 2 80 81
M  V30 93 1 81 82
M  V30 94 2 82 77
M  V30 95 1 78 83
M  V30 96 2 83 84
M  V30 97 1 84 85
M  V30 98 1 85 79
M  V30 99 1 81 86
M  V30 100 2 86 87
M  V30 101 1 87 88
M  V30 102 1 88 82
M  V30 103 1 77 89
M  V30 104 1 80 90
M  V30 105 2 89 91
M  V30 106 1 91 92
M  V30 107 2 92 93
M  V30 108 1 93 94
M  V30 109 1 94 89
M  V30 110 2 90 95
M  V30 111 1 95 96
M  V30 112 2 96 97
M  V30 113 1 97 98
M  V30 114 1 98 90
M  V30 115 1 93 99
M  V30 116 1 99 100
M  V30 117 1 97 101
M  V30 118 1 101 102
M  V30 119 1 103 104
M  V30 120 1 104 105
M  V30 121 2 105 106
M  V30 122 1 106 107
M  V30 123 2 107 103
M  V30 124 1 106 108
M  V30 125 1 108 109
M  V30 126 1 109 110
M  V30 127 1 110 107
M  V30 128 2 108 111
M  V30 129 2 110 112
M  V30 130 1 109 113
M  V30 131 1 113 114
M  V30 132 1 103 84
M  V30 133 1 11 67
M  V30 134 1 49 105
M  V30 END BOND
M  V30 END CTAB
M  END
$$$$
