SCF done       -308.008624576009          0.000406124858
 OpenBabel12282109573D

179199  0  0  0  0  0  0  0  0999 V2000
    2.3779    0.9517   -6.0500 C   0  0  0  0  0  0  0  0  0  0  0  0
    1.3004    0.0717   -6.2913 C   0  0  0  0  0  0  0  0  0  0  0  0
    0.7210   -0.6605   -5.2243 C   0  0  0  0  0  0  0  0  0  0  0  0
    1.1692   -0.5839   -3.9104 C   0  0  0  0  0  0  0  0  0  0  0  0
    2.2974    0.2328   -3.6861 C   0  0  0  0  0  0  0  0  0  0  0  0
    2.8671    0.9800   -4.7489 C   0  0  0  0  0  0  0  0  0  0  0  0
    0.6851   -0.2192   -7.5308 C   0  0  0  0  0  0  0  0  0  0  0  0
   -0.3513   -1.1045   -7.4281 C   0  0  0  0  0  0  0  0  0  0  0  0
   -0.6146   -1.6320   -5.7771 S   0  0  0  0  0  0  0  0  0  0  0  0
    3.0106    0.3991   -2.4780 C   0  0  0  0  0  0  0  0  0  0  0  0
    4.0636    1.2644   -2.5845 C   0  0  0  0  0  0  0  0  0  0  0  0
    4.2210    1.9276   -4.1989 S   0  0  0  0  0  0  0  0  0  0  0  0
    2.9207    1.7727   -7.1100 C   0  0  0  0  0  0  0  0  0  0  0  0
    0.5008   -1.2892   -2.8382 C   0  0  0  0  0  0  0  0  0  0  0  0
    2.2436    2.4319   -8.0993 C   0  0  0  0  0  0  0  0  0  0  0  0
    3.0874    3.1404   -8.9744 C   0  0  0  0  0  0  0  0  0  0  0  0
    4.4084    3.0269   -8.6650 C   0  0  0  0  0  0  0  0  0  0  0  0
    4.6361    2.0384   -7.2613 S   0  0  0  0  0  0  0  0  0  0  0  0
   -0.0456   -2.5435   -2.8586 C   0  0  0  0  0  0  0  0  0  0  0  0
   -0.6642   -2.8991   -1.6458 C   0  0  0  0  0  0  0  0  0  0  0  0
   -0.6080   -1.9199   -0.7004 C   0  0  0  0  0  0  0  0  0  0  0  0
    0.2278   -0.5289   -1.2952 S   0  0  0  0  0  0  0  0  0  0  0  0
    5.5830    3.5835   -9.3925 C   0  0  0  0  0  0  0  0  0  0  0  0
    6.2748    2.5026  -10.2263 C   0  0  0  0  0  0  0  0  0  0  0  0
   -1.1842   -1.9206    0.6731 C   0  0  0  0  0  0  0  0  0  0  0  0
   -2.4380   -1.0466    0.7482 C   0  0  0  0  0  0  0  0  0  0  0  0
   -1.1573   -1.6111   -8.4851 C   0  0  0  0  0  0  0  0  0  0  0  0
   -2.4167   -2.7895   -8.1657 S   0  0  0  0  0  0  0  0  0  0  0  0
   -2.8667   -2.8839   -9.8285 C   0  0  0  0  0  0  0  0  0  0  0  0
   -2.0965   -2.0595  -10.5802 C   0  0  0  0  0  0  0  0  0  0  0  0
   -1.1273   -1.3329   -9.8319 C   0  0  0  0  0  0  0  0  0  0  0  0
   -1.9632   -1.6846  -11.9992 C   0  0  0  0  0  0  0  0  0  0  0  0
   -0.9259   -0.7595  -12.0186 N   0  0  0  0  0  0  0  0  0  0  0  0
   -0.3791   -0.4869  -10.7681 C   0  0  0  0  0  0  0  0  0  0  0  0
   -2.5716   -2.0605  -12.9683 O   0  0  0  0  0  0  0  0  0  0  0  0
    0.5247    0.2938  -10.5811 O   0  0  0  0  0  0  0  0  0  0  0  0
   -0.4780   -0.1056  -13.2293 C   0  0  0  0  0  0  0  0  0  0  0  0
   -1.2604    1.1774  -13.4872 C   0  0  0  0  0  0  0  0  0  0  0  0
   10.6132    5.9853   -0.3239 C   0  0  0  0  0  0  0  0  0  0  0  0
    9.8185    4.8911    0.0834 C   0  0  0  0  0  0  0  0  0  0  0  0
   10.1437    4.1600    1.2541 C   0  0  0  0  0  0  0  0  0  0  0  0
   11.2665    4.4310    2.0319 C   0  0  0  0  0  0  0  0  0  0  0  0
   12.1040    5.4723    1.5785 C   0  0  0  0  0  0  0  0  0  0  0  0
   11.7539    6.2285    0.4296 C   0  0  0  0  0  0  0  0  0  0  0  0
    8.6720    4.3691   -0.5531 C   0  0  0  0  0  0  0  0  0  0  0  0
    8.0998    3.3257    0.1244 C   0  0  0  0  0  0  0  0  0  0  0  0
    8.9614    2.9252    1.5927 S   0  0  0  0  0  0  0  0  0  0  0  0
   13.3343    5.8933    2.1312 C   0  0  0  0  0  0  0  0  0  0  0  0
   13.8898    6.9585    1.4801 C   0  0  0  0  0  0  0  0  0  0  0  0
   12.9167    7.4898    0.1227 S   0  0  0  0  0  0  0  0  0  0  0  0
   10.2302    6.8130   -1.4479 C   0  0  0  0  0  0  0  0  0  0  0  0
   11.5611    3.6814    3.2330 C   0  0  0  0  0  0  0  0  0  0  0  0
    8.9796    7.2548   -1.7814 C   0  0  0  0  0  0  0  0  0  0  0  0
    8.9643    8.0704   -2.9296 C   0  0  0  0  0  0  0  0  0  0  0  0
   10.1946    8.2484   -3.4840 C   0  0  0  0  0  0  0  0  0  0  0  0
   11.4118    7.4109   -2.5785 S   0  0  0  0  0  0  0  0  0  0  0  0
   11.3878    2.3423    3.4632 C   0  0  0  0  0  0  0  0  0  0  0  0
   11.8128    1.9390    4.7418 C   0  0  0  0  0  0  0  0  0  0  0  0
   12.2875    2.9641    5.5042 C   0  0  0  0  0  0  0  0  0  0  0  0
   12.2185    4.4601    4.6453 S   0  0  0  0  0  0  0  0  0  0  0  0
   10.5700    9.0597   -4.6756 C   0  0  0  0  0  0  0  0  0  0  0  0
   11.4115   10.2740   -4.2784 C   0  0  0  0  0  0  0  0  0  0  0  0
   12.9103    2.9190    6.8559 C   0  0  0  0  0  0  0  0  0  0  0  0
   14.4364    2.9772    6.7366 C   0  0  0  0  0  0  0  0  0  0  0  0
    6.9555    2.5844   -0.2723 C   0  0  0  0  0  0  0  0  0  0  0  0
    6.2415    2.8018   -1.8604 S   0  0  0  0  0  0  0  0  0  0  0  0
    4.9984    1.6000   -1.5686 C   0  0  0  0  0  0  0  0  0  0  0  0
    5.1420    1.0902   -0.2981 C   0  0  0  0  0  0  0  0  0  0  0  0
    6.2420    1.6337    0.4140 C   0  0  0  0  0  0  0  0  0  0  0  0
    4.4796    0.1144    0.5786 C   0  0  0  0  0  0  0  0  0  0  0  0
    5.2180    0.1292    1.7555 N   0  0  0  0  0  0  0  0  0  0  0  0
    6.2996    1.0035    1.7349 C   0  0  0  0  0  0  0  0  0  0  0  0
    3.5024   -0.5754    0.4017 O   0  0  0  0  0  0  0  0  0  0  0  0
    7.0750    1.1597    2.6474 O   0  0  0  0  0  0  0  0  0  0  0  0
    4.9114   -0.7159    2.8889 C   0  0  0  0  0  0  0  0  0  0  0  0
    5.6295   -2.0573    2.7914 C   0  0  0  0  0  0  0  0  0  0  0  0
   19.0982   13.2711   -0.2217 C   0  0  0  0  0  0  0  0  0  0  0  0
   18.9692   12.1119    0.5706 C   0  0  0  0  0  0  0  0  0  0  0  0
   20.0148   11.7153    1.4402 C   0  0  0  0  0  0  0  0  0  0  0  0
   21.2168   12.4126    1.5490 C   0  0  0  0  0  0  0  0  0  0  0  0
   21.3687   13.5348    0.7151 C   0  0  0  0  0  0  0  0  0  0  0  0
   20.3170   13.9341   -0.1452 C   0  0  0  0  0  0  0  0  0  0  0  0
   17.8781   11.2166    0.6245 C   0  0  0  0  0  0  0  0  0  0  0  0
   18.0473   10.2055    1.5307 C   0  0  0  0  0  0  0  0  0  0  0  0
   19.5853   10.2978    2.3601 S   0  0  0  0  0  0  0  0  0  0  0  0
   22.5002   14.3930    0.5842 C   0  0  0  0  0  0  0  0  0  0  0  0
   22.3050   15.3939   -0.2974 C   0  0  0  0  0  0  0  0  0  0  0  0
   20.7444   15.3696   -1.0390 S   0  0  0  0  0  0  0  0  0  0  0  0
   17.9948   13.7435   -1.0315 C   0  0  0  0  0  0  0  0  0  0  0  0
   22.2319   11.9885    2.4931 C   0  0  0  0  0  0  0  0  0  0  0  0
   16.6721   13.8025   -0.6885 C   0  0  0  0  0  0  0  0  0  0  0  0
   15.8545   14.3258   -1.7083 C   0  0  0  0  0  0  0  0  0  0  0  0
   16.5428   14.6654   -2.8325 C   0  0  0  0  0  0  0  0  0  0  0  0
   18.2354   14.3458   -2.6467 S   0  0  0  0  0  0  0  0  0  0  0  0
   22.5987   10.7124    2.8176 C   0  0  0  0  0  0  0  0  0  0  0  0
   23.5850   10.6513    3.8211 C   0  0  0  0  0  0  0  0  0  0  0  0
   23.9655   11.8725    4.2845 C   0  0  0  0  0  0  0  0  0  0  0  0
   23.1140   13.1375    3.4628 S   0  0  0  0  0  0  0  0  0  0  0  0
   16.0108   15.1964   -4.1187 C   0  0  0  0  0  0  0  0  0  0  0  0
   15.9089   14.0910   -5.1723 C   0  0  0  0  0  0  0  0  0  0  0  0
   24.9989   12.1987    5.3069 C   0  0  0  0  0  0  0  0  0  0  0  0
   26.2884   12.6973    4.6507 C   0  0  0  0  0  0  0  0  0  0  0  0
   17.1266    9.1619    1.8090 C   0  0  0  0  0  0  0  0  0  0  0  0
   15.6454    9.0009    0.8823 S   0  0  0  0  0  0  0  0  0  0  0  0
   15.1158    7.6011    1.7955 C   0  0  0  0  0  0  0  0  0  0  0  0
   16.0498    7.3025    2.7622 C   0  0  0  0  0  0  0  0  0  0  0  0
   17.1730    8.1706    2.7570 C   0  0  0  0  0  0  0  0  0  0  0  0
   16.2452    6.3277    3.8431 C   0  0  0  0  0  0  0  0  0  0  0  0
   17.4680    6.6599    4.4123 N   0  0  0  0  0  0  0  0  0  0  0  0
   18.0950    7.7476    3.8123 C   0  0  0  0  0  0  0  0  0  0  0  0
   15.5467    5.4188    4.2306 O   0  0  0  0  0  0  0  0  0  0  0  0
   19.1672    8.1925    4.1463 O   0  0  0  0  0  0  0  0  0  0  0  0
   18.0531    5.9166    5.5067 C   0  0  0  0  0  0  0  0  0  0  0  0
   18.7789    4.6728    5.0060 C   0  0  0  0  0  0  0  0  0  0  0  0
    1.0090    0.1842   -8.4725 H   0  0  0  0  0  0  0  0  0  0  0  0
    2.7832   -0.1168   -1.5634 H   0  0  0  0  0  0  0  0  0  0  0  0
    1.1717    2.4406   -8.1771 H   0  0  0  0  0  0  0  0  0  0  0  0
    2.7240    3.7154   -9.8073 H   0  0  0  0  0  0  0  0  0  0  0  0
    0.0288   -3.2081   -3.7004 H   0  0  0  0  0  0  0  0  0  0  0  0
   -1.1323   -3.8530   -1.4784 H   0  0  0  0  0  0  0  0  0  0  0  0
    6.2978    3.9976   -8.6775 H   0  0  0  0  0  0  0  0  0  0  0  0
    5.2428    4.3895  -10.0461 H   0  0  0  0  0  0  0  0  0  0  0  0
    6.6372    1.7056   -9.5812 H   0  0  0  0  0  0  0  0  0  0  0  0
    7.1183    2.9246  -10.7670 H   0  0  0  0  0  0  0  0  0  0  0  0
    5.5776    2.0761  -10.9437 H   0  0  0  0  0  0  0  0  0  0  0  0
   -0.4413   -1.5444    1.3803 H   0  0  0  0  0  0  0  0  0  0  0  0
   -1.4340   -2.9470    0.9500 H   0  0  0  0  0  0  0  0  0  0  0  0
   -2.1959   -0.0186    0.4881 H   0  0  0  0  0  0  0  0  0  0  0  0
   -2.8507   -1.0636    1.7538 H   0  0  0  0  0  0  0  0  0  0  0  0
   -3.1938   -1.4093    0.0551 H   0  0  0  0  0  0  0  0  0  0  0  0
   -3.6607   -3.5353  -10.1342 H   0  0  0  0  0  0  0  0  0  0  0  0
   -0.6211   -0.8099  -14.0522 H   0  0  0  0  0  0  0  0  0  0  0  0
    0.5853    0.1144  -13.1070 H   0  0  0  0  0  0  0  0  0  0  0  0
   -2.3192    0.9550  -13.5979 H   0  0  0  0  0  0  0  0  0  0  0  0
   -0.9045    1.6484  -14.3991 H   0  0  0  0  0  0  0  0  0  0  0  0
   -1.1280    1.8704  -12.6595 H   0  0  0  0  0  0  0  0  0  0  0  0
    8.2878    4.7288   -1.4910 H   0  0  0  0  0  0  0  0  0  0  0  0
   13.8177    5.4269    2.9690 H   0  0  0  0  0  0  0  0  0  0  0  0
    8.1045    7.0415   -1.1940 H   0  0  0  0  0  0  0  0  0  0  0  0
    8.0679    8.5110   -3.3294 H   0  0  0  0  0  0  0  0  0  0  0  0
   11.0109    1.6583    2.7249 H   0  0  0  0  0  0  0  0  0  0  0  0
   11.7701    0.9204    5.0848 H   0  0  0  0  0  0  0  0  0  0  0  0
    9.6574    9.3891   -5.1769 H   0  0  0  0  0  0  0  0  0  0  0  0
   11.1409    8.4434   -5.3752 H   0  0  0  0  0  0  0  0  0  0  0  0
   10.8582   10.9086   -3.5897 H   0  0  0  0  0  0  0  0  0  0  0  0
   11.6710   10.8575   -5.1582 H   0  0  0  0  0  0  0  0  0  0  0  0
   12.3282    9.9518   -3.7896 H   0  0  0  0  0  0  0  0  0  0  0  0
   12.6112    1.9984    7.3616 H   0  0  0  0  0  0  0  0  0  0  0  0
   12.5643    3.7680    7.4499 H   0  0  0  0  0  0  0  0  0  0  0  0
   14.8052    2.1027    6.2052 H   0  0  0  0  0  0  0  0  0  0  0  0
   14.8927    3.0041    7.7232 H   0  0  0  0  0  0  0  0  0  0  0  0
   14.7357    3.8639    6.1822 H   0  0  0  0  0  0  0  0  0  0  0  0
    3.8287   -0.8635    2.9026 H   0  0  0  0  0  0  0  0  0  0  0  0
    5.2268   -0.1807    3.7878 H   0  0  0  0  0  0  0  0  0  0  0  0
    5.3203   -2.5841    1.8915 H   0  0  0  0  0  0  0  0  0  0  0  0
    5.3870   -2.6685    3.6561 H   0  0  0  0  0  0  0  0  0  0  0  0
    6.7058   -1.9041    2.7611 H   0  0  0  0  0  0  0  0  0  0  0  0
   17.0032   11.2965    0.0044 H   0  0  0  0  0  0  0  0  0  0  0  0
   23.4192   14.2529    1.1222 H   0  0  0  0  0  0  0  0  0  0  0  0
   22.9933   16.1669   -0.5784 H   0  0  0  0  0  0  0  0  0  0  0  0
   16.3042   13.5220    0.2824 H   0  0  0  0  0  0  0  0  0  0  0  0
   14.7908   14.4521   -1.6076 H   0  0  0  0  0  0  0  0  0  0  0  0
   22.1997    9.8406    2.3324 H   0  0  0  0  0  0  0  0  0  0  0  0
   23.9920    9.7276    4.1923 H   0  0  0  0  0  0  0  0  0  0  0  0
   16.6673   15.9863   -4.4901 H   0  0  0  0  0  0  0  0  0  0  0  0
   15.0223   15.6255   -3.9409 H   0  0  0  0  0  0  0  0  0  0  0  0
   16.8910   13.6663   -5.3666 H   0  0  0  0  0  0  0  0  0  0  0  0
   15.5118   14.4911   -6.1018 H   0  0  0  0  0  0  0  0  0  0  0  0
   15.2516   13.2971   -4.8246 H   0  0  0  0  0  0  0  0  0  0  0  0
   25.2080   11.3014    5.8931 H   0  0  0  0  0  0  0  0  0  0  0  0
   24.6198   12.9696    5.9820 H   0  0  0  0  0  0  0  0  0  0  0  0
   26.6868   11.9410    3.9780 H   0  0  0  0  0  0  0  0  0  0  0  0
   27.0364   12.9192    5.4077 H   0  0  0  0  0  0  0  0  0  0  0  0
   26.0937   13.6014    4.0780 H   0  0  0  0  0  0  0  0  0  0  0  0
   17.2458    5.6342    6.1875 H   0  0  0  0  0  0  0  0  0  0  0  0
   18.7491    6.5891    6.0135 H   0  0  0  0  0  0  0  0  0  0  0  0
   18.0807    4.0122    4.4972 H   0  0  0  0  0  0  0  0  0  0  0  0
   19.2178    4.1397    5.8446 H   0  0  0  0  0  0  0  0  0  0  0  0
   19.5707    4.9524    4.3147 H   0  0  0  0  0  0  0  0  0  0  0  0
  1  6  1  0  0  0  0
  2  1  2  0  0  0  0
  2  3  1  0  0  0  0
  3  4  2  0  0  0  0
  4  5  1  0  0  0  0
  4 14  1  0  0  0  0
  5 10  1  0  0  0  0
  6 12  1  0  0  0  0
  6  5  2  0  0  0  0
  7  8  2  0  0  0  0
  7  2  1  0  0  0  0
  8  9  1  0  0  0  0
  9  3  1  0  0  0  0
 10116  1  0  0  0  0
 11 10  2  0  0  0  0
 11 67  1  0  0  0  0
 12 11  1  0  0  0  0
 13  1  1  0  0  0  0
 14 22  1  0  0  0  0
 15 13  2  0  0  0  0
 16 17  2  0  0  0  0
 16 15  1  0  0  0  0
 17 18  1  0  0  0  0
 18 13  1  0  0  0  0
 19 14  2  0  0  0  0
 19 20  1  0  0  0  0
 20120  1  0  0  0  0
 20 21  2  0  0  0  0
 21 25  1  0  0  0  0
 22 21  1  0  0  0  0
 23121  1  0  0  0  0
 23 17  1  0  0  0  0
 24123  1  0  0  0  0
 24 23  1  0  0  0  0
 25 26  1  0  0  0  0
 25127  1  0  0  0  0
 25126  1  0  0  0  0
 26129  1  0  0  0  0
 27 28  1  0  0  0  0
 27  8  1  0  0  0  0
 29 28  1  0  0  0  0
 30 31  1  0  0  0  0
 30 29  2  0  0  0  0
 31 27  2  0  0  0  0
 32 30  1  0  0  0  0
 33 32  1  0  0  0  0
 33 34  1  0  0  0  0
 34 36  2  0  0  0  0
 34 31  1  0  0  0  0
 35 32  2  0  0  0  0
 37133  1  0  0  0  0
 37 33  1  0  0  0  0
 38 37  1  0  0  0  0
 38136  1  0  0  0  0
 39 40  2  0  0  0  0
 39 44  1  0  0  0  0
 40 41  1  0  0  0  0
 41 47  1  0  0  0  0
 41 42  2  0  0  0  0
 42 52  1  0  0  0  0
 43 42  1  0  0  0  0
 43 48  1  0  0  0  0
 44 43  2  0  0  0  0
 45 40  1  0  0  0  0
 45 46  2  0  0  0  0
 46 47  1  0  0  0  0
 48138  1  0  0  0  0
 49105  1  0  0  0  0
 49 48  2  0  0  0  0
 50 44  1  0  0  0  0
 50 49  1  0  0  0  0
 51 39  1  0  0  0  0
 52 57  2  0  0  0  0
 52 60  1  0  0  0  0
 53 51  2  0  0  0  0
 53139  1  0  0  0  0
 54 53  1  0  0  0  0
 55 54  2  0  0  0  0
 55 56  1  0  0  0  0
 56 51  1  0  0  0  0
 57 58  1  0  0  0  0
 58142  1  0  0  0  0
 58 59  2  0  0  0  0
 59 63  1  0  0  0  0
 60 59  1  0  0  0  0
 61 62  1  0  0  0  0
 61 55  1  0  0  0  0
 62147  1  0  0  0  0
 62145  1  0  0  0  0
 63148  1  0  0  0  0
 63149  1  0  0  0  0
 64 63  1  0  0  0  0
 64151  1  0  0  0  0
 65 46  1  0  0  0  0
 65 69  2  0  0  0  0
 66 67  1  0  0  0  0
 66 65  1  0  0  0  0
 67 68  2  0  0  0  0
 68 69  1  0  0  0  0
 68 70  1  0  0  0  0
 69 72  1  0  0  0  0
 70 71  1  0  0  0  0
 71 75  1  0  0  0  0
 72 71  1  0  0  0  0
 72 74  2  0  0  0  0
 73 70  2  0  0  0  0
 75153  1  0  0  0  0
 75154  1  0  0  0  0
 76 75  1  0  0  0  0
 76156  1  0  0  0  0
 77 82  2  0  0  0  0
 77 78  1  0  0  0  0
 78 83  1  0  0  0  0
 78 79  2  0  0  0  0
 79 80  1  0  0  0  0
 79 85  1  0  0  0  0
 80 90  1  0  0  0  0
 81 80  2  0  0  0  0
 82 81  1  0  0  0  0
 83 84  2  0  0  0  0
 84103  1  0  0  0  0
 84 85  1  0  0  0  0
 86 81  1  0  0  0  0
 86159  1  0  0  0  0
 87 86  2  0  0  0  0
 88 87  1  0  0  0  0
 88 82  1  0  0  0  0
 89 91  2  0  0  0  0
 89 77  1  0  0  0  0
 90 95  2  0  0  0  0
 90 98  1  0  0  0  0
 91161  1  0  0  0  0
 92162  1  0  0  0  0
 92 91  1  0  0  0  0
 93 94  1  0  0  0  0
 93 92  2  0  0  0  0
 94 89  1  0  0  0  0
 95 96  1  0  0  0  0
 96164  1  0  0  0  0
 96 97  2  0  0  0  0
 97101  1  0  0  0  0
 98 97  1  0  0  0  0
 99166  1  0  0  0  0
 99 93  1  0  0  0  0
100169  1  0  0  0  0
100 99  1  0  0  0  0
101170  1  0  0  0  0
101171  1  0  0  0  0
102101  1  0  0  0  0
102173  1  0  0  0  0
103107  2  0  0  0  0
104105  1  0  0  0  0
104103  1  0  0  0  0
105106  2  0  0  0  0
106108  1  0  0  0  0
107106  1  0  0  0  0
107110  1  0  0  0  0
108111  2  0  0  0  0
108109  1  0  0  0  0
109113  1  0  0  0  0
110112  2  0  0  0  0
110109  1  0  0  0  0
113176  1  0  0  0  0
113175  1  0  0  0  0
114113  1  0  0  0  0
114178  1  0  0  0  0
115  7  1  0  0  0  0
117 15  1  0  0  0  0
118 16  1  0  0  0  0
119 19  1  0  0  0  0
122 23  1  0  0  0  0
124 24  1  0  0  0  0
125 24  1  0  0  0  0
128 26  1  0  0  0  0
130 26  1  0  0  0  0
131 29  1  0  0  0  0
132 37  1  0  0  0  0
134 38  1  0  0  0  0
135 38  1  0  0  0  0
137 45  1  0  0  0  0
140 54  1  0  0  0  0
141 57  1  0  0  0  0
143 61  1  0  0  0  0
144 61  1  0  0  0  0
146 62  1  0  0  0  0
150 64  1  0  0  0  0
152 64  1  0  0  0  0
155 76  1  0  0  0  0
157 76  1  0  0  0  0
158 83  1  0  0  0  0
160 87  1  0  0  0  0
163 95  1  0  0  0  0
165 99  1  0  0  0  0
167100  1  0  0  0  0
168100  1  0  0  0  0
172102  1  0  0  0  0
174102  1  0  0  0  0
177114  1  0  0  0  0
179114  1  0  0  0  0
M  END
